@<TRIPOS>MOLECULE
tmp/3c5jB00.pdb
 210 203 0 0 0
SMALL
GASTEIGER

@<TRIPOS>ATOM
      1  N         93.8880   27.4700   22.2810 N.3     6  GLU6       -0.1245
      2  CA        93.0130   28.1680   21.3440 C.3     6  GLU6        0.1567
      3  C         91.5840   27.9580   21.8420 C.2     6  GLU6        0.2260
      4  O         91.1210   26.8230   21.9700 O.2     6  GLU6       -0.2867
      5  CB        93.1630   27.5940   19.9360 C.3     6  GLU6        0.0388
      6  CG        92.7780   28.5670   18.8330 C.3     6  GLU6        0.1160
      7  CD        93.6020   29.8380   18.8870 C.2     6  GLU6        0.3649
      8  OE1       94.8290   29.7290   19.0940 O.co2   6  GLU6       -0.2457
      9  OE2       93.0340   30.9400   18.7180 O.co2   6  GLU6       -0.2457
     10  N         87.3340   29.2830   21.6500 N.3     8  LEU8       -0.1245
     11  CA        86.2710   29.9610   20.9160 C.3     8  LEU8        0.1561
     12  C         85.0220   29.9330   21.7840 C.2     8  LEU8        0.2260
     13  O         84.6570   28.8890   22.3220 O.2     8  LEU8       -0.2867
     14  CB        85.9750   29.2600   19.5850 C.3     8  LEU8        0.0270
     15  CG        84.7440   29.7710   18.8240 C.3     8  LEU8        0.0019
     16  CD1       84.9160   31.2440   18.4750 C.3     8  LEU8        0.0001
     17  CD2       84.5390   28.9510   17.5690 C.3     8  LEU8        0.0001
     18  N         81.0330   31.0770   21.5740 N.3    10  SER10      -0.1217
     19  CA        79.9200   31.5520   20.7650 C.3    10  SER10       0.1889
     20  C         78.8100   31.8260   21.7760 C.2    10  SER10       0.2288
     21  O         78.1940   30.9030   22.3200 O.2    10  SER10      -0.2866
     22  CB        79.5120   30.4770   19.7550 C.3    10  SER10       0.2089
     23  OG        80.6140   30.1350   18.9250 O.3    10  SER10      -0.2183
     24  N         74.3200   38.0810   19.4010 N.3    23  PHE23      -0.1241
     25  CA        75.2430   36.9870   19.1330 C.3    23  PHE23       0.1605
     26  C         76.6740   37.5070   19.0970 C.2    23  PHE23       0.2264
     27  O         76.9840   38.4680   18.3920 O.2    23  PHE23      -0.2867
     28  CB        74.8730   36.3390   17.7920 C.3    23  PHE23       0.0534
     29  CG        75.9070   35.3910   17.2490 C.ar   23  PHE23      -0.0203
     30  CD1       76.1760   34.1820   17.8810 C.ar   23  PHE23      -0.0042
     31  CD2       76.5820   35.6930   16.0680 C.ar   23  PHE23      -0.0042
     32  CE1       77.1010   33.2850   17.3420 C.ar   23  PHE23      -0.0003
     33  CE2       77.5090   34.8040   15.5210 C.ar   23  PHE23      -0.0003
     34  CZ        77.7700   33.5970   16.1560 C.ar   23  PHE23      -0.0000
     35  N         80.6760   36.0660   18.7200 N.3    25  GLU25      -0.1245
     36  CA        81.5740   34.9690   18.4000 C.3    25  GLU25       0.1567
     37  C         82.9620   35.5050   18.7340 C.2    25  GLU25       0.2260
     38  O         83.4850   36.3820   18.0400 O.2    25  GLU25      -0.2867
     39  CB        81.4590   34.6300   16.9190 C.3    25  GLU25       0.0388
     40  CG        82.2730   33.4490   16.4880 C.3    25  GLU25       0.1160
     41  CD        82.0750   33.1570   15.0210 C.2    25  GLU25       0.3649
     42  OE1       80.9980   32.6450   14.6560 O.co2  25  GLU25      -0.2457
     43  OE2       82.9900   33.4580   14.2360 O.co2  25  GLU25      -0.2457
     44  N         87.1300   34.8660   19.6830 N.3    27  TYR27      -0.1241
     45  CA        88.3160   34.0170   19.5570 C.3    27  TYR27       0.1605
     46  C         89.4290   34.4330   20.5150 C.2    27  TYR27       0.2264
     47  O         89.8070   35.6010   20.5640 O.2    27  TYR27      -0.2867
     48  CB        88.8550   34.0630   18.1190 C.3    27  TYR27       0.0534
     49  CG        87.8870   33.5630   17.0740 C.ar   27  TYR27      -0.0201
     50  CD1       86.7980   34.3390   16.6720 C.ar   27  TYR27      -0.0009
     51  CD2       88.0430   32.3010   16.5060 C.ar   27  TYR27      -0.0009
     52  CE1       85.8860   33.8680   15.7340 C.ar   27  TYR27       0.0417
     53  CE2       87.1360   31.8180   15.5640 C.ar   27  TYR27       0.0417
     54  CZ        86.0590   32.6060   15.1850 C.ar   27  TYR27       0.1957
     55  OH        85.1420   32.1200   14.2790 O.3    27  TYR27      -0.2866
     56  N         91.4940   38.0530   20.4220 N.3    34  PHE34      -0.1241
     57  CA        92.0810   38.8220   19.3290 C.3    34  PHE34       0.1605
     58  C         91.1090   39.2950   18.2520 C.2    34  PHE34       0.2264
     59  O         91.3870   40.2670   17.5500 O.2    34  PHE34      -0.2867
     60  CB        93.2520   38.0500   18.6990 C.3    34  PHE34       0.0534
     61  CG        92.8910   36.6870   18.1620 C.ar   34  PHE34      -0.0203
     62  CD1       92.5920   36.5100   16.8150 C.ar   34  PHE34      -0.0042
     63  CD2       92.9040   35.5700   18.9960 C.ar   34  PHE34      -0.0042
     64  CE1       92.3170   35.2400   16.3020 C.ar   34  PHE34      -0.0003
     65  CE2       92.6300   34.2980   18.4970 C.ar   34  PHE34      -0.0003
     66  CZ        92.3360   34.1290   17.1490 C.ar   34  PHE34      -0.0000
     67  N         83.3000   41.2330   11.5140 N.3    44  TYR44      -0.1241
     68  CA        84.3390   40.9370   12.4920 C.3    44  TYR44       0.1605
     69  C         85.1560   42.1810   12.8110 C.2    44  TYR44       0.2264
     70  O         85.3700   43.0370   11.9530 O.2    44  TYR44      -0.2867
     71  CB        85.2820   39.8410   11.9860 C.3    44  TYR44       0.0534
     72  CG        84.6580   38.4660   11.9380 C.ar   44  TYR44      -0.0201
     73  CD1       83.9830   38.0230   10.8020 C.ar   44  TYR44      -0.0009
     74  CD2       84.7260   37.6140   13.0410 C.ar   44  TYR44      -0.0009
     75  CE1       83.3910   36.7650   10.7640 C.ar   44  TYR44       0.0417
     76  CE2       84.1340   36.3550   13.0150 C.ar   44  TYR44       0.0417
     77  CZ        83.4710   35.9380   11.8750 C.ar   44  TYR44       0.1957
     78  OH        82.8840   34.7000   11.8470 O.3    44  TYR44      -0.2866
     79  N         94.5100   41.0470   10.6460 N.3    53  PRO53      -0.2102
     80  CA        94.5220   40.2950    9.3860 C.3    53  PRO53       0.1504
     81  C         93.3480   39.3250    9.2820 C.2    53  PRO53       0.2575
     82  O         92.8310   39.0680    8.1940 O.2    53  PRO53      -0.2718
     83  CB        95.8630   39.5660    9.4350 C.3    53  PRO53       0.0282
     84  CG        96.7200   40.5080   10.2310 C.3    53  PRO53       0.0208
     85  CD        95.7930   40.8900   11.3530 C.3    53  PRO53       0.0893
     86  N         92.9340   38.7880   10.4240 N.am   54  VAL54      -0.1980
     87  CA        91.8260   37.8420   10.4610 C.3    54  VAL54       0.1595
     88  C         90.5020   38.5320   10.1330 C.2    54  VAL54       0.2287
     89  O         89.7430   38.0620    9.2850 O.2    54  VAL54      -0.2864
     90  CB        91.7180   37.1710   11.8540 C.3    54  VAL54       0.0276
     91  CG1       90.6120   36.1260   11.8490 C.3    54  VAL54       0.0022
     92  CG2       93.0570   36.5380   12.2280 C.3    54  VAL54       0.0022
     93  N         90.4060   39.6070    6.4290 N.3    57  SER57      -0.1202
     94  CA        90.1830   38.4790    5.5320 C.3    57  SER57       0.2020
     95  C         88.7400   37.9790    5.5710 C.2    57  SER57       0.2618
     96  O         88.0980   37.8050    4.5310 O.2    57  SER57      -0.2717
     97  CB        91.1310   37.3300    5.8890 C.3    57  SER57       0.2103
     98  OG        90.8100   36.1580    5.1570 O.3    57  SER57      -0.2182
     99  N         88.2240   37.7460    6.7720 N.am   58  TRP58      -0.1975
    100  CA        86.8610   37.2580    6.9060 C.3    58  TRP58       0.1640
    101  C         85.8080   38.2580    6.4470 C.2    58  TRP58       0.2290
    102  O         84.8160   37.8680    5.8350 O.2    58  TRP58      -0.2864
    103  CB        86.5850   36.8360    8.3550 C.3    58  TRP58       0.0576
    104  CG        87.3200   35.5880    8.7620 C.ar   58  TRP58       0.0006
    105  CD1       87.9580   34.7020    7.9400 C.ar   58  TRP58       0.0946
    106  CD2       87.4520   35.0660   10.0920 C.ar   58  TRP58       0.0152
    107  NE1       88.4780   33.6600    8.6760 N.ar   58  TRP58      -0.2442
    108  CE2       88.1810   33.8590    9.9970 C.ar   58  TRP58       0.0810
    109  CE3       87.0230   35.5010   11.3520 C.ar   58  TRP58       0.0012
    110  CZ2       88.4920   33.0820   11.1180 C.ar   58  TRP58       0.0191
    111  CZ3       87.3320   34.7270   12.4670 C.ar   58  TRP58       0.0001
    112  CH2       88.0590   33.5310   12.3400 C.ar   58  TRP58       0.0015
    113  N         80.2390   34.4430    4.2210 N.3    64  LEU64      -0.1245
    114  CA        80.5190   34.1380    5.6190 C.3    64  LEU64       0.1561
    115  C         79.7500   35.0940    6.5270 C.2    64  LEU64       0.2260
    116  O         79.0900   34.6680    7.4770 O.2    64  LEU64      -0.2867
    117  CB        82.0230   34.2560    5.8990 C.3    64  LEU64       0.0270
    118  CG        82.4870   34.1970    7.3620 C.3    64  LEU64       0.0019
    119  CD1       82.0900   32.8690    7.9940 C.3    64  LEU64       0.0001
    120  CD2       83.9990   34.3840    7.4230 C.3    64  LEU64       0.0001
    121  N         76.0490   34.4750    6.7450 N.3    67  GLN67      -0.1231
    122  CA        75.7750   33.3170    7.5880 C.3    67  GLN67       0.1698
    123  C         75.7750   33.7440    9.0560 C.2    67  GLN67       0.2592
    124  O         74.8550   33.4290    9.8090 O.2    67  GLN67      -0.2718
    125  CB        76.8490   32.2490    7.3610 C.3    67  GLN67       0.0381
    126  CG        76.7900   31.0720    8.3190 C.3    67  GLN67       0.0905
    127  CD        77.9850   30.1470    8.1610 C.2    67  GLN67       0.2608
    128  OE1       78.2100   29.5810    7.0900 O.2    67  GLN67      -0.2717
    129  NE2       78.7610   29.9920    9.2300 N.am   67  GLN67      -0.0878
    130  N         76.8110   34.4730    9.4510 N.am   68  LYS68      -0.1980
    131  CA        76.9390   34.9340   10.8300 C.3    68  LYS68       0.1596
    132  C         75.8350   35.9090   11.2330 C.2    68  LYS68       0.2287
    133  O         75.3980   35.9170   12.3870 O.2    68  LYS68      -0.2864
    134  CB        78.3080   35.5840   11.0410 C.3    68  LYS68       0.0298
    135  CG        79.4760   34.6350   10.7870 C.3    68  LYS68       0.0038
    136  CD        79.4150   33.4330   11.7260 C.3    68  LYS68       0.0206
    137  CE        80.4790   32.3980   11.3930 C.3    68  LYS68       0.1093
    138  NZ        80.4460   31.2690   12.3730 N.3    68  LYS68      -0.1314
    139  N         72.7850   34.1510   12.5140 N.3    71  GLN71      -0.1245
    140  CA        72.8610   33.3480   13.7310 C.3    71  GLN71       0.1566
    141  C         71.9300   33.7560   14.8790 C.2    71  GLN71       0.2260
    142  O         71.4620   32.8930   15.6210 O.2    71  GLN71      -0.2867
    143  CB        74.3120   33.2660   14.2100 C.3    71  GLN71       0.0367
    144  CG        75.2100   32.4580   13.2730 C.3    71  GLN71       0.0905
    145  CD        74.7780   30.9990   13.1400 C.2    71  GLN71       0.2608
    146  OE1       73.6620   30.7000   12.7050 O.2    71  GLN71      -0.2717
    147  NE2       75.6630   30.0850   13.5170 N.am   71  GLN71      -0.0878
    148  N         68.9140   31.6780   13.4660 N.3    74  ASN74      -0.1225
    149  CA        69.1910   30.2710   13.1830 C.3    74  ASN74       0.1785
    150  C         69.9490   29.4980   14.2570 C.2    74  ASN74       0.2597
    151  O         69.9380   28.2610   14.2660 O.2    74  ASN74      -0.2718
    152  CB        69.9610   30.1640   11.8640 C.3    74  ASN74       0.1169
    153  CG        69.2370   30.8400   10.7140 C.2    74  ASN74       0.2627
    154  OD1       68.0160   30.7540   10.6030 O.2    74  ASN74      -0.2716
    155  ND2       69.9890   31.5050    9.8470 N.am   74  ASN74      -0.0877
    156  N         70.5990   30.2270   15.1550 N.am   75  TYR75      -0.1976
    157  CA        71.3960   29.6190   16.2100 C.3    75  TYR75       0.1639
    158  C         70.8760   29.9880   17.5930 C.2    75  TYR75       0.2290
    159  O         70.4300   29.1200   18.3410 O.2    75  TYR75      -0.2864
    160  CB        72.8550   30.0590   16.0320 C.3    75  TYR75       0.0560
    161  CG        73.8250   29.6290   17.1110 C.ar   75  TYR75      -0.0198
    162  CD1       74.1030   28.2790   17.3450 C.ar   75  TYR75      -0.0009
    163  CD2       74.4840   30.5840   17.8880 C.ar   75  TYR75      -0.0009
    164  CE1       75.0250   27.8910   18.3370 C.ar   75  TYR75       0.0417
    165  CE2       75.3990   30.2120   18.8750 C.ar   75  TYR75       0.0417
    166  CZ        75.6650   28.8710   19.0940 C.ar   75  TYR75       0.1957
    167  OH        76.5760   28.5260   20.0690 O.3    75  TYR75      -0.2866
    168  N         66.8730   29.7300   17.8010 N.3    78  HIS78      -0.1226
    169  CA        66.5570   28.3240   17.5900 C.3    78  HIS78       0.1752
    170  C         66.8680   27.5170   18.8490 C.2    78  HIS78       0.2596
    171  O         66.0020   26.8200   19.3850 O.2    78  HIS78      -0.2718
    172  CB        67.3710   27.7400   16.4320 C.3    78  HIS78       0.0759
    173  CG        67.1510   26.2740   16.2310 C.ar   78  HIS78       0.0818
    174  ND1       66.1380   25.7750   15.4410 N.ar   78  HIS78      -0.2268
    175  CD2       67.7690   25.1980   16.7740 C.ar   78  HIS78       0.1154
    176  CE1       66.1410   24.4550   15.5050 C.ar   78  HIS78       0.1986
    177  NE2       67.1210   24.0790   16.3080 N.ar   78  HIS78      -0.2212
    178  N         68.1080   27.6110   19.3180 N.am   79  ASN79      -0.1974
    179  CA        68.5150   26.8600   20.5010 C.3    79  ASN79       0.1688
    180  C         67.7310   27.2320   21.7480 C.2    79  ASN79       0.2292
    181  O         67.3990   26.3690   22.5580 O.2    79  ASN79      -0.2864
    182  CB        70.0190   27.0220   20.7440 C.3    79  ASN79       0.1181
    183  CG        70.8440   26.2600   19.7370 C.2    79  ASN79       0.2629
    184  OD1       70.3440   25.3430   19.0850 O.2    79  ASN79      -0.2716
    185  ND2       72.1130   26.6170   19.6110 N.am   79  ASN79      -0.0877
    186  N         64.6590   25.3620   21.8140 N.3    82  VAL82      -0.1231
    187  CA        64.8770   23.9530   22.0930 C.3    82  VAL82       0.1692
    188  C         65.1020   23.6490   23.5770 C.2    82  VAL82       0.2591
    189  O         64.5890   22.6550   24.0930 O.2    82  VAL82      -0.2718
    190  CB        66.0920   23.4140   21.3090 C.3    82  VAL82       0.0266
    191  CG1       66.4160   21.9950   21.7530 C.3    82  VAL82       0.0020
    192  CG2       65.8070   23.4540   19.8060 C.3    82  VAL82       0.0020
    193  N         65.8530   24.5030   24.2690 N.am   83  VAL83      -0.1980
    194  CA        66.1670   24.2410   25.6760 C.3    83  VAL83       0.1595
    195  C         65.4360   25.0290   26.7610 C.2    83  VAL83       0.2287
    196  O         65.5130   24.6750   27.9420 O.2    83  VAL83      -0.2864
    197  CB        67.6830   24.4400   25.9460 C.3    83  VAL83       0.0276
    198  CG1       68.5180   23.6480   24.9410 C.3    83  VAL83       0.0022
    199  CG2       68.0270   25.9240   25.8890 C.3    83  VAL83       0.0022
    200  N         63.4790   23.4050   29.9060 N.3    86  PHE86      -0.1241
    201  CA        64.2000   22.7860   31.0140 C.3    86  PHE86       0.1605
    202  C         65.3850   23.5860   31.5520 C.2    86  PHE86       0.2264
    203  O         66.1910   23.0680   32.3230 O.2    86  PHE86      -0.2867
    204  CB        64.6430   21.3580   30.6350 C.3    86  PHE86       0.0534
    205  CG        65.5550   21.2750   29.4300 C.ar   86  PHE86      -0.0203
    206  CD1       66.9370   21.3080   29.5790 C.ar   86  PHE86      -0.0042
    207  CD2       65.0280   21.1070   28.1510 C.ar   86  PHE86      -0.0042
    208  CE1       67.7820   21.1690   28.4750 C.ar   86  PHE86      -0.0003
    209  CE2       65.8630   20.9670   27.0390 C.ar   86  PHE86      -0.0003
    210  CZ        67.2400   20.9970   27.2000 C.ar   86  PHE86      -0.0000
@<TRIPOS>BOND
     1   113   114    1
     2    96    95    2
     3    98    97    1
     4    94    95    1
     5    94    97    1
     6    94    93    1
     7    95    99   am
     8   114   117    1
     9   114   115    1
    10   102   101    2
    11   117   118    1
    12   101   100    1
    13   115   116    2
    14   121   122    1
    15    99   100    1
    16   100   103    1
    17   128   127    2
    18   125   122    1
    19   125   126    1
    20   118   120    1
    21   118   119    1
    22   122   123    1
    23   105   107   ar
    24   105   104   ar
    25   127   126    1
    26   127   129   am
    27    82    81    2
    28   103   104    1
    29   107   108   ar
    30   104   106   ar
    31   123   130   am
    32   123   124    2
    33    81    80    1
    34    81    86   am
    35    89    88    2
    36    80    83    1
    37    80    79    1
    38    83    84    1
    39   130   131    1
    40   155   153   am
    41   108   106   ar
    42   108   110   ar
    43   106   109   ar
    44    88    87    1
    45    84    85    1
    46    86    87    1
    47    87    90    1
    48   154   153    2
    49    79    85    1
    50   153   152    1
    51    75    73   ar
    52    75    77   ar
    53   135   134    1
    54   135   136    1
    55    73    72   ar
    56   131   134    1
    57   131   132    1
    58   110   112   ar
    59   132   133    2
    60   109   111   ar
    61   137   136    1
    62   137   138    1
    63    67    68    1
    64    78    77    1
    65    91    90    1
    66    90    92    1
    67   152   149    1
    68    77    76   ar
    69    72    71    1
    70    72    74   ar
    71    70    69    2
    72    71    68    1
    73   112   111   ar
    74    68    69    1
    75   139   140    1
    76   146   145    2
    77    76    74   ar
    78   145   144    1
    79   145   147   am
    80   149   148    1
    81   149   150    1
    82   144   143    1
    83   140   143    1
    84   140   141    1
    85    43    41   ar
    86   150   151    2
    87   150   156   am
    88    55    54    1
    89    42    41   ar
    90   141   142    2
    91    41    40    1
    92   156   157    1
    93    54    53   ar
    94    54    52   ar
    95   174   176   ar
    96   174   173   ar
    97   176   177   ar
    98    33    31   ar
    99    33    34   ar
   100    53    51   ar
   101    52    50   ar
   102   160   157    1
   103   160   161    1
   104    31    29   ar
   105    34    32   ar
   106   157   158    1
   107   173   172    1
   108   173   175   ar
   109    64    62   ar
   110    64    66   ar
   111   177   175   ar
   112   172   169    1
   113    40    39    1
   114    51    49   ar
   115    50    49   ar
   116    62    61   ar
   117    39    36    1
   118    49    48    1
   119   161   162   ar
   120   161   163   ar
   121    66    65   ar
   122    29    28    1
   123    29    30   ar
   124    32    30   ar
   125   162   164   ar
   126    59    58    2
   127    17    15    1
   128   169   168    1
   129   169   170    1
   130   158   159    2
   131    28    25    1
   132   163   165   ar
   133    38    37    2
   134    48    45    1
   135    61    60    1
   136    61    63   ar
   137    58    57    1
   138   164   166   ar
   139    27    26    2
   140    36    35    1
   141    36    37    1
   142    16    15    1
   143    65    63   ar
   144    60    57    1
   145     9     7   ar
   146    15    14    1
   147     6     7    1
   148     6     5    1
   149   170   178   am
   150   170   171    2
   151   165   166   ar
   152     7     8   ar
   153    23    22    1
   154   184   183    2
   155   166   167    1
   156    26    25    1
   157    25    24    1
   158   178   179    1
   159    57    56    1
   160    45    44    1
   161    45    46    1
   162    14    11    1
   163   185   183   am
   164   183   182    1
   165    22    19    1
   166   192   190    1
   167     5     2    1
   168   179   182    1
   169   179   180    1
   170    46    47    2
   171    19    18    1
   172    19    20    1
   173    11    10    1
   174    11    12    1
   175   190   191    1
   176   190   187    1
   177     2     3    1
   178     2     1    1
   179   180   181    2
   180    20    21    2
   181    12    13    2
   182   186   187    1
   183     3     4    2
   184   187   188    1
   185   188   189    2
   186   188   193   am
   187   193   194    1
   188   198   197    1
   189   194   197    1
   190   194   195    1
   191   199   197    1
   192   195   196    2
   193   209   210   ar
   194   209   207   ar
   195   210   208   ar
   196   207   205   ar
   197   208   206   ar
   198   205   206   ar
   199   205   204    1
   200   200   201    1
   201   204   201    1
   202   201   202    1
   203   202   203    2
