@<TRIPOS>MOLECULE
tmp/3c5lA00.pdb
 165 165 0 0 0
SMALL
GASTEIGER

@<TRIPOS>ATOM
      1  N         13.4490   38.1320   66.4570 N.3    40  SER40      -0.1202
      2  CA        12.2570   38.9710   66.3590 C.3    40  SER40       0.2020
      3  C         11.2710   38.4910   65.2940 C.2    40  SER40       0.2619
      4  O         10.0610   38.5120   65.4930 O.2    40  SER40      -0.2717
      5  CB        12.6520   40.4100   66.0130 C.3    40  SER40       0.2103
      6  OG        13.5580   40.9360   66.9460 O.3    40  SER40      -0.2182
      7  N         11.8110   38.1060   64.1450 N.am   41  LYS41      -0.1965
      8  CA        11.0000   37.6390   63.0370 C.3    41  LYS41       0.1728
      9  C         11.8810   36.8320   62.0800 C.2    41  LYS41       0.2616
     10  O         13.1010   36.8840   62.1620 O.2    41  LYS41      -0.2715
     11  CB        10.3620   38.8400   62.3260 C.3    41  LYS41       0.0311
     12  CG        11.3490   39.9190   61.9400 C.3    41  LYS41       0.0038
     13  CD        10.6590   41.1120   61.3050 C.3    41  LYS41       0.0206
     14  CE        10.1540   42.1040   62.3420 C.3    41  LYS41       0.1093
     15  NZ         9.7210   43.3680   61.6690 N.3    41  LYS41      -0.1314
     16  N         11.2590   36.0700   61.1900 N.am   42  TRP42      -0.1960
     17  CA        12.0110   35.2570   60.2490 C.3    42  TRP42       0.1771
     18  C         11.1980   34.9170   58.9900 C.2    42  TRP42       0.2620
     19  O          9.9720   34.9640   58.9980 O.2    42  TRP42      -0.2715
     20  CB        12.4780   33.9690   60.9430 C.3    42  TRP42       0.0590
     21  CG        11.3600   33.2150   61.5780 C.ar   42  TRP42       0.0006
     22  CD1       10.9020   33.3410   62.8610 C.ar   42  TRP42       0.0946
     23  CD2       10.4910   32.2800   60.9320 C.ar   42  TRP42       0.0152
     24  NE1        9.7980   32.5460   63.0520 N.ar   42  TRP42      -0.2442
     25  CE2        9.5210   31.8840   61.8840 C.ar   42  TRP42       0.0810
     26  CE3       10.4310   31.7420   59.6360 C.ar   42  TRP42       0.0012
     27  CZ2        8.5020   30.9740   61.5810 C.ar   42  TRP42       0.0191
     28  CZ3        9.4220   30.8410   59.3350 C.ar   42  TRP42       0.0001
     29  CH2        8.4660   30.4650   60.3090 C.ar   42  TRP42       0.0015
     30  N         11.9090   34.5900   57.9130 N.am   43  VAL43      -0.1963
     31  CA        11.3060   34.2230   56.6390 C.3    43  VAL43       0.1727
     32  C         12.0320   32.9980   56.0980 C.2    43  VAL43       0.2616
     33  O         13.2620   33.0040   55.9990 O.2    43  VAL43      -0.2715
     34  CB        11.4670   35.3280   55.5920 C.3    43  VAL43       0.0290
     35  CG1       10.2690   35.3240   54.6570 C.3    43  VAL43       0.0023
     36  CG2       11.6420   36.6460   56.2530 C.3    43  VAL43       0.0023
     37  N         11.2860   31.9650   55.7260 N.am   44  ASP44      -0.1957
     38  CA        11.8910   30.7380   55.2030 C.3    44  ASP44       0.1840
     39  C         11.9830   30.6660   53.6630 C.2    44  ASP44       0.2622
     40  O         11.0090   30.3100   53.0060 O.2    44  ASP44      -0.2715
     41  CB        11.1010   29.5230   55.7160 C.3    44  ASP44       0.1450
     42  CG        11.6950   28.1920   55.2710 C.2    44  ASP44       0.3671
     43  OD1       12.5270   28.1650   54.3420 O.co2  44  ASP44      -0.2456
     44  OD2       11.3200   27.1570   55.8540 O.co2  44  ASP44      -0.2456
     45  N         13.1470   31.0030   53.0960 N.am   45  TYR45      -0.1974
     46  CA        13.3570   30.9190   51.6380 C.3    45  TYR45       0.1639
     47  C         14.3540   29.8090   51.3280 C.2    45  TYR45       0.2290
     48  O         15.0790   29.8820   50.3340 O.2    45  TYR45      -0.2864
     49  CB        13.9170   32.2220   51.0430 C.3    45  TYR45       0.0560
     50  CG        12.9030   33.3270   50.8250 C.ar   45  TYR45      -0.0198
     51  CD1       12.8510   34.4260   51.6730 C.ar   45  TYR45      -0.0009
     52  CD2       12.0000   33.2710   49.7660 C.ar   45  TYR45      -0.0009
     53  CE1       11.9350   35.4500   51.4780 C.ar   45  TYR45       0.0417
     54  CE2       11.0680   34.2910   49.5600 C.ar   45  TYR45       0.0417
     55  CZ        11.0450   35.3800   50.4220 C.ar   45  TYR45       0.1957
     56  OH        10.1380   36.4020   50.2270 O.3    45  TYR45      -0.2866
     57  N         11.5170   42.4690   53.2390 N.3   113  TYR113     -0.1241
     58  CA        10.3530   41.6200   53.3310 C.3   113  TYR113      0.1605
     59  C          9.8090   41.5580   54.7520 C.2   113  TYR113      0.2264
     60  O          8.6080   41.6960   54.9680 O.2   113  TYR113     -0.2867
     61  CB        10.6830   40.2080   52.8420 C.3   113  TYR113      0.0534
     62  CG         9.4820   39.3150   52.8900 C.ar  113  TYR113     -0.0201
     63  CD1        8.5180   39.3560   51.8790 C.ar  113  TYR113     -0.0009
     64  CD2        9.2480   38.5070   53.9900 C.ar  113  TYR113     -0.0009
     65  CE1        7.3460   38.6120   51.9740 C.ar  113  TYR113      0.0417
     66  CE2        8.0850   37.7640   54.1040 C.ar  113  TYR113      0.0417
     67  CZ         7.1370   37.8190   53.0950 C.ar  113  TYR113      0.1957
     68  OH         5.9760   37.0930   53.2240 O.3   113  TYR113     -0.2866
     69  N          6.0530   43.1680   56.2980 N.3   117  HIS117     -0.1226
     70  CA         5.0300   42.1510   56.4670 C.3   117  HIS117      0.1752
     71  C          4.9440   41.5260   57.8510 C.2   117  HIS117      0.2596
     72  O          3.9220   40.9110   58.1830 O.2   117  HIS117     -0.2718
     73  CB         5.2390   41.0280   55.4520 C.3   117  HIS117      0.0759
     74  CG         5.1950   41.4770   54.0240 C.ar  117  HIS117      0.0818
     75  ND1        4.0140   41.7650   53.3680 N.ar  117  HIS117     -0.2268
     76  CD2        6.1880   41.6810   53.1240 C.ar  117  HIS117      0.1154
     77  CE1        4.2830   42.1240   52.1260 C.ar  117  HIS117      0.1986
     78  NE2        5.5940   42.0810   51.9520 N.ar  117  HIS117     -0.2212
     79  N          5.9790   41.6910   58.6760 N.am  118  LEU118     -0.1966
     80  CA         5.9610   41.0160   59.9700 C.3   118  LEU118      0.1728
     81  C          6.0710   41.8390   61.2470 C.2   118  LEU118      0.2616
     82  O          6.6750   42.9150   61.2590 O.2   118  LEU118     -0.2715
     83  CB         7.0500   39.9360   59.9640 C.3   118  LEU118      0.0311
     84  CG         7.1880   39.2120   58.6160 C.3   118  LEU118      0.0022
     85  CD1        8.3620   38.2620   58.6340 C.3   118  LEU118      0.0001
     86  CD2        5.9020   38.4760   58.3040 C.3   118  LEU118      0.0001
     87  N          5.4690   41.2990   62.3120 N.am  119  LEU119     -0.1977
     88  CA         5.4760   41.8900   63.6530 C.3   119  LEU119      0.1596
     89  C          6.8210   41.5520   64.3070 C.2   119  LEU119      0.2287
     90  O          7.4450   40.5630   63.9490 O.2   119  LEU119     -0.2864
     91  CB         4.3620   41.2720   64.5150 C.3   119  LEU119      0.0297
     92  CG         2.9470   41.8480   64.6640 C.3   119  LEU119      0.0022
     93  CD1        2.4950   42.6180   63.4300 C.3   119  LEU119      0.0001
     94  CD2        2.0100   40.6820   64.9610 C.3   119  LEU119      0.0001
     95  N         12.0460   22.8900   61.7970 N.3   140  ARG140     -0.1245
     96  CA        10.6810   23.0050   62.2500 C.3   140  ARG140      0.1563
     97  C         10.0760   21.6150   62.4080 C.2   140  ARG140      0.2260
     98  O         10.5520   20.6430   61.8250 O.2   140  ARG140     -0.2867
     99  CB         9.8660   23.8110   61.2450 C.3   140  ARG140      0.0307
    100  CG         9.4000   23.0150   60.0510 C.3   140  ARG140      0.0489
    101  CD         8.5580   23.8700   59.1440 C.3   140  ARG140      0.2205
    102  NE         9.3700   24.9160   58.5360 N.pl3 140  ARG140     -0.0865
    103  CZ         9.0660   26.2080   58.5610 C.cat 140  ARG140      0.5346
    104  NH1        7.9620   26.6240   59.1670 N.pl3 140  ARG140      0.1354
    105  NH2        9.8720   27.0820   57.9790 N.pl3 140  ARG140      0.1354
    106  N          9.6020   28.7250   68.8670 N.3   157  ASN157     -0.1225
    107  CA         8.3760   29.4720   68.5920 C.3   157  ASN157      0.1785
    108  C          7.2740   28.4830   68.2380 C.2   157  ASN157      0.2597
    109  O          7.3540   27.7980   67.2100 O.2   157  ASN157     -0.2718
    110  CB         8.5750   30.4410   67.4270 C.3   157  ASN157      0.1169
    111  CG         9.4500   31.6110   67.7850 C.2   157  ASN157      0.2627
    112  OD1       10.0510   31.6450   68.8550 O.2   157  ASN157     -0.2716
    113  ND2        9.5360   32.5800   66.8830 N.am  157  ASN157     -0.0877
    114  N          6.2570   28.4030   69.0950 N.am  158  PHE158     -0.1962
    115  CA         5.1420   27.4980   68.8660 C.3   158  PHE158      0.1771
    116  C          4.1410   28.0750   67.8770 C.2   158  PHE158      0.2619
    117  O          3.7830   29.2580   67.9380 O.2   158  PHE158     -0.2715
    118  CB         4.4670   27.1540   70.1880 C.3   158  PHE158      0.0574
    119  CG         5.3160   26.3100   71.0780 C.ar  158  PHE158     -0.0200
    120  CD1        6.2050   26.8940   71.9660 C.ar  158  PHE158     -0.0042
    121  CD2        5.2700   24.9190   70.9800 C.ar  158  PHE158     -0.0042
    122  CE1        7.0420   26.1140   72.7440 C.ar  158  PHE158     -0.0003
    123  CE2        6.0990   24.1240   71.7510 C.ar  158  PHE158     -0.0003
    124  CZ         6.9920   24.7210   72.6390 C.ar  158  PHE158     -0.0000
    125  N          3.7040   27.2260   66.9540 N.am  159  PHE159     -0.1974
    126  CA         2.7720   27.6340   65.9100 C.3   159  PHE159      0.1639
    127  C          1.3410   27.8780   66.3950 C.2   159  PHE159      0.2290
    128  O          0.8260   28.9940   66.2970 O.2   159  PHE159     -0.2864
    129  CB         2.7790   26.5940   64.7850 C.3   159  PHE159      0.0560
    130  CG         4.0850   26.5240   64.0160 C.ar  159  PHE159     -0.0200
    131  CD1        4.6000   25.2890   63.5950 C.ar  159  PHE159     -0.0042
    132  CD2        4.7860   27.6820   63.6850 C.ar  159  PHE159     -0.0042
    133  CE1        5.7960   25.2160   62.8530 C.ar  159  PHE159     -0.0003
    134  CE2        5.9770   27.6130   62.9460 C.ar  159  PHE159     -0.0003
    135  CZ         6.4800   26.3810   62.5320 C.ar  159  PHE159     -0.0000
    136  N          1.2170   30.6670   69.4920 N.3   162  HIS162     -0.1241
    137  CA         2.1560   31.7840   69.4360 C.3   162  HIS162      0.1621
    138  C          2.8890   31.9980   70.7500 C.2   162  HIS162      0.2264
    139  O          3.3080   33.1160   71.0550 O.2   162  HIS162     -0.2867
    140  CB         1.4370   33.0760   69.0410 C.3   162  HIS162      0.0745
    141  CG         0.6230   32.9450   67.7940 C.ar  162  HIS162      0.0817
    142  ND1        1.1500   32.4780   66.6090 N.ar  162  HIS162     -0.2268
    143  CD2       -0.6910   33.1740   67.5570 C.ar  162  HIS162      0.1154
    144  CE1        0.1970   32.4200   65.6980 C.ar  162  HIS162      0.1986
    145  NE2       -0.9310   32.8350   66.2470 N.ar  162  HIS162     -0.2212
    146  N          6.1560   31.4560   73.1240 N.3   164  LYS164     -0.1245
    147  CA         7.5730   31.2850   72.8320 C.3   164  LYS164      0.1561
    148  C          8.4550   30.9980   74.0300 C.2   164  LYS164      0.2260
    149  O          8.1680   31.4040   75.1570 O.2   164  LYS164     -0.2867
    150  CB         8.1150   32.5290   72.1070 C.3   164  LYS164      0.0271
    151  CG         7.4370   32.8420   70.7600 C.3   164  LYS164      0.0035
    152  CD         7.9330   34.1860   70.1750 C.3   164  LYS164      0.0206
    153  CE         7.2540   34.5200   68.8360 C.3   164  LYS164      0.1093
    154  NZ         5.7600   34.5460   68.9280 N.3   164  LYS164     -0.1314
    155  N          1.0850   37.5460   75.2040 N.3   181  ARG181     -0.1245
    156  CA         2.3450   38.1920   74.8960 C.3   181  ARG181      0.1563
    157  C          2.9640   38.7570   76.1680 C.2   181  ARG181      0.2260
    158  O          3.8040   39.6560   76.1110 O.2   181  ARG181     -0.2867
    159  CB         2.1660   39.2900   73.8500 C.3   181  ARG181      0.0307
    160  CG         1.7460   38.7780   72.4770 C.3   181  ARG181      0.0489
    161  CD         1.4760   39.9540   71.5320 C.3   181  ARG181      0.2205
    162  NE         0.9850   39.5220   70.2230 N.pl3 181  ARG181     -0.0865
    163  CZ         0.5990   40.3550   69.2580 C.cat 181  ARG181      0.5346
    164  NH1        0.6450   41.6710   69.4580 N.pl3 181  ARG181      0.1354
    165  NH2        0.1800   39.8810   68.0890 N.pl3 181  ARG181      0.1354
@<TRIPOS>BOND
     1    54    52   ar
     2    54    55   ar
     3    52    50   ar
     4    56    55    1
     5    48    47    2
     6    55    53   ar
     7    50    49    1
     8    50    51   ar
     9    49    46    1
    10    47    46    1
    11    53    51   ar
    12    46    45    1
    13    63    65   ar
    14    63    62   ar
    15    78    77   ar
    16    78    76   ar
    17    65    67   ar
    18    77    75   ar
    19    61    62    1
    20    61    58    1
    21    62    64   ar
    22    40    39    2
    23    67    68    1
    24    67    66   ar
    25    45    39   am
    26    76    74   ar
    27    57    58    1
    28    58    59    1
    29    75    74   ar
    30    39    38    1
    31    64    66   ar
    32    74    73    1
    33    43    42   ar
    34    35    34    1
    35    59    60    2
    36    38    41    1
    37    38    37    1
    38    42    41    1
    39    42    44   ar
    40    73    70    1
    41    34    36    1
    42    34    31    1
    43    37    32   am
    44    33    32    2
    45    32    31    1
    46    69    70    1
    47    70    71    1
    48    31    30    1
    49    71    72    2
    50    71    79   am
    51    30    18   am
    52   105   103    1
    53    86    84    1
    54   102   103    2
    55   102   101    1
    56   103   104    1
    57    84    85    1
    58    84    83    1
    59    79    80    1
    60    18    19    2
    61    18    17    1
    62   101   100    1
    63    28    26   ar
    64    28    29   ar
    65    26    23   ar
    66    83    80    1
    67    80    81    1
    68   100    99    1
    69    17    20    1
    70    17    16    1
    71    29    27   ar
    72    23    21   ar
    73    23    25   ar
    74    20    21    1
    75    16     9   am
    76    99    96    1
    77    81    82    2
    78    81    87   am
    79    13    12    1
    80    13    14    1
    81    21    22   ar
    82    27    25   ar
    83    15    14    1
    84    95    96    1
    85    98    97    2
    86    25    24   ar
    87    12    11    1
    88     9    10    2
    89     9     8    1
    90    96    97    1
    91    87    88    1
    92    11     8    1
    93   135   133   ar
    94   135   134   ar
    95   133   131   ar
    96    22    24   ar
    97   134   132   ar
    98     8     7    1
    99    93    92    1
   100   131   130   ar
   101    88    89    1
   102    88    91    1
   103   132   130   ar
   104    90    89    2
   105   130   129    1
   106     7     3   am
   107    91    92    1
   108    92    94    1
   109   129   126    1
   110     3     4    2
   111     3     2    1
   112   144   145   ar
   113   144   142   ar
   114   126   127    1
   115   126   125    1
   116     5     2    1
   117     5     6    1
   118   145   143   ar
   119   128   127    2
   120     2     1    1
   121   142   141   ar
   122   113   111   am
   123   125   116   am
   124   109   108    2
   125   110   111    1
   126   110   107    1
   127   143   141   ar
   128   111   112    2
   129   141   140    1
   130   116   117    2
   131   116   115    1
   132   165   163    1
   133   108   107    1
   134   108   114   am
   135   107   106    1
   136   153   154    1
   137   153   152    1
   138   115   114    1
   139   115   118    1
   140   140   137    1
   141   163   164    1
   142   163   162    2
   143   137   136    1
   144   137   138    1
   145   152   151    1
   146   118   119    1
   147   162   161    1
   148   138   139    2
   149   151   150    1
   150   121   119   ar
   151   121   123   ar
   152   119   120   ar
   153   161   160    1
   154   123   124   ar
   155   120   122   ar
   156   150   147    1
   157   160   159    1
   158   124   122   ar
   159   147   146    1
   160   147   148    1
   161   159   156    1
   162   148   149    2
   163   156   155    1
   164   156   157    1
   165   158   157    2
