@<TRIPOS>MOLECULE
tmp/3c5nB01.pdb
 111 103 0 0 0
SMALL
GASTEIGER

@<TRIPOS>ATOM
      1  N         58.7930    5.6320   13.2890 N.3    45  ARG45      -0.1245
      2  CA        58.3110    4.2640   13.4500 C.3    45  ARG45       0.1563
      3  C         59.1100    3.5700   14.5540 C.2    45  ARG45       0.2260
      4  O         60.3460    3.5630   14.5290 O.2    45  ARG45      -0.2867
      5  CB        58.3910    3.4720   12.1360 C.3    45  ARG45       0.0307
      6  CG        57.9390    2.0120   12.2930 C.3    45  ARG45       0.0489
      7  CD        57.0340    1.5200   11.1670 C.3    45  ARG45       0.2205
      8  NE        57.7650    1.0010   10.0110 N.pl3  45  ARG45      -0.0865
      9  CZ        57.2630    0.1300    9.1320 C.cat  45  ARG45       0.5346
     10  NH1       56.0330   -0.3360    9.2770 N.pl3  45  ARG45       0.1354
     11  NH2       57.9960   -0.2890    8.1060 N.pl3  45  ARG45       0.1354
     12  N         59.4880    0.3140   15.6660 N.3    47  ARG47      -0.1231
     13  CA        60.2490   -0.9110   15.4610 C.3    47  ARG47       0.1694
     14  C         60.7400   -1.0650   14.0250 C.2    47  ARG47       0.2593
     15  O         59.9930   -1.4830   13.1390 O.2    47  ARG47      -0.2718
     16  CB        59.4160   -2.1270   15.8720 C.3    47  ARG47       0.0321
     17  CG        59.3360   -2.3330   17.3820 C.3    47  ARG47       0.0489
     18  CD        58.4330   -3.5050   17.7500 C.3    47  ARG47       0.2205
     19  NE        57.0540   -3.0910   18.0060 N.pl3  47  ARG47      -0.0865
     20  CZ        56.4180   -3.2440   19.1670 C.cat  47  ARG47       0.5346
     21  NH1       57.0170   -3.8170   20.2030 N.pl3  47  ARG47       0.1354
     22  NH2       55.1650   -2.8300   19.2890 N.pl3  47  ARG47       0.1354
     23  N         62.0030   -0.7090   13.8120 N.am   48  SER48      -0.1938
     24  CA        62.6850   -0.9550   12.5460 C.3    48  SER48       0.2055
     25  C         64.1700   -1.1630   12.8270 C.2    48  SER48       0.2643
     26  O         64.6620   -0.8210   13.9000 O.2    48  SER48      -0.2714
     27  CB        62.5090    0.2200   11.5680 C.3    48  SER48       0.2130
     28  OG        61.1490    0.6100   11.4300 O.3    48  SER48      -0.2179
     29  N         64.8850   -1.7190   11.8590 N.am   49  LYS49      -0.1963
     30  CA        66.3230   -1.9200   12.0020 C.3    49  LYS49       0.1728
     31  C         67.0540   -0.5890   11.8340 C.2    49  LYS49       0.2616
     32  O         68.2600   -0.4790   12.0930 O.2    49  LYS49      -0.2715
     33  CB        66.8270   -2.9520   10.9830 C.3    49  LYS49       0.0311
     34  CG        66.2600   -2.7820    9.5750 C.3    49  LYS49       0.0038
     35  CD        66.3870   -4.0560    8.7550 C.3    49  LYS49       0.0206
     36  CE        65.4870   -4.0040    7.5250 C.3    49  LYS49       0.1093
     37  NZ        64.0550   -4.2840    7.8490 N.3    49  LYS49      -0.1314
     38  N         66.3010    0.4230   11.4160 N.am   50  THR50      -0.1951
     39  CA        66.8470    1.7340   11.1040 C.3    50  THR50       0.1897
     40  C         65.9080    2.8100   11.6450 C.2    50  THR50       0.2313
     41  O         64.7080    2.5680   11.8030 O.2    50  THR50      -0.2863
     42  CB        66.9900    1.9110    9.5680 C.3    50  THR50       0.1794
     43  OG1       68.0720    1.1060    9.0700 O.3    50  THR50      -0.2208
     44  CG2       67.2450    3.3560    9.2130 C.3    50  THR50       0.0378
     45  N         63.5440    5.8290   11.2760 N.3    52  ASN52      -0.1240
     46  CA        62.8280    6.3870   10.1480 C.3    52  ASN52       0.1653
     47  C         61.4580    6.9290   10.4640 C.2    52  ASN52       0.2266
     48  O         60.8110    6.4910   11.4070 O.2    52  ASN52      -0.2867
     49  CB        62.7300    5.3550    9.0220 C.3    52  ASN52       0.1155
     50  CG        61.9540    4.1450    9.4170 C.2    52  ASN52       0.2627
     51  OD1       62.4780    3.2190   10.0480 O.2    52  ASN52      -0.2716
     52  ND2       60.6940    4.1270    9.0400 N.am   52  ASN52      -0.0877
     53  N         59.0820    7.9610    3.0960 N.3    65  LYS65      -0.1245
     54  CA        59.8470    7.5600    4.2540 C.3    65  LYS65       0.1561
     55  C         61.0750    8.4480    4.3470 C.2    65  LYS65       0.2260
     56  O         61.7100    8.7200    3.3470 O.2    65  LYS65      -0.2867
     57  CB        60.2650    6.1130    4.0790 C.3    65  LYS65       0.0271
     58  CG        61.2250    5.5900    5.1210 C.3    65  LYS65       0.0035
     59  CD        61.3020    4.0800    5.0510 C.3    65  LYS65       0.0206
     60  CE        61.7620    3.5440    6.3910 C.3    65  LYS65       0.1093
     61  NZ        63.2140    3.8130    6.6740 N.3    65  LYS65      -0.1314
     62  N         64.6580    8.2170    6.1320 N.3    67  ARG67      -0.1245
     63  CA        65.5430    7.2920    6.8120 C.3    67  ARG67       0.1563
     64  C         66.8360    7.9850    7.2660 C.2    67  ARG67       0.2260
     65  O         67.4510    8.6760    6.4860 O.2    67  ARG67      -0.2867
     66  CB        65.8720    6.1460    5.8540 C.3    67  ARG67       0.0307
     67  CG        67.3280    5.8600    5.7140 C.3    67  ARG67       0.0489
     68  CD        67.6390    4.4790    6.0780 C.3    67  ARG67       0.2205
     69  NE        67.1400    3.4780    5.1500 N.pl3  67  ARG67      -0.0865
     70  CZ        66.1750    2.6180    5.4500 C.cat  67  ARG67       0.5346
     71  NH1       65.5990    2.6610    6.6430 N.pl3  67  ARG67       0.1354
     72  NH2       65.7860    1.7120    4.5610 N.pl3  67  ARG67       0.1354
     73  N         58.8950   -0.3050   -3.5770 N.3    82  GLN82      -0.1231
     74  CA        59.6020   -1.4490   -3.0330 C.3    82  GLN82       0.1698
     75  C         61.0960   -1.3400   -3.1860 C.2    82  GLN82       0.2592
     76  O         61.6030   -0.9610   -4.2340 O.2    82  GLN82      -0.2718
     77  CB        59.1190   -2.7150   -3.7430 C.3    82  GLN82       0.0381
     78  CG        59.5950   -3.9700   -3.1080 C.3    82  GLN82       0.0905
     79  CD        59.6740   -5.0780   -4.1230 C.2    82  GLN82       0.2608
     80  OE1       58.6680   -5.6050   -4.5610 O.2    82  GLN82      -0.2717
     81  NE2       60.8830   -5.4210   -4.5110 N.am   82  GLN82      -0.0878
     82  N         61.8180   -1.6840   -2.1260 N.am   83  ASN83      -0.1974
     83  CA        63.2420   -1.9070   -2.2540 C.3    83  ASN83       0.1688
     84  C         63.4980   -3.0590   -3.2090 C.2    83  ASN83       0.2292
     85  O         63.0660   -4.1630   -2.9600 O.2    83  ASN83      -0.2864
     86  CB        63.8520   -2.2330   -0.8830 C.3    83  ASN83       0.1181
     87  CG        65.3410   -2.4990   -0.9570 C.2    83  ASN83       0.2629
     88  OD1       65.9440   -2.5410   -2.0270 O.2    83  ASN83      -0.2716
     89  ND2       65.9440   -2.6400    0.1910 N.am   83  ASN83      -0.0877
     90  N         64.5070   -6.5380   -2.0080 N.3    86  ARG86      -0.1245
     91  CA        63.5150   -7.4120   -1.4020 C.3    86  ARG86       0.1563
     92  C         62.7460   -8.2430   -2.4310 C.2    86  ARG86       0.2260
     93  O         61.9910   -9.1630   -2.0750 O.2    86  ARG86      -0.2867
     94  CB        62.5490   -6.5780   -0.5680 C.3    86  ARG86       0.0307
     95  CG        63.2540   -5.7190    0.4770 C.3    86  ARG86       0.0489
     96  CD        63.9020   -6.5630    1.5360 C.3    86  ARG86       0.2205
     97  NE        63.1270   -6.5430    2.7710 N.pl3  86  ARG86      -0.0865
     98  CZ        63.6120   -6.1770    3.9540 C.cat  86  ARG86       0.5346
     99  NH1       64.8890   -5.8140    4.0760 N.pl3  86  ARG86       0.1354
    100  NH2       62.8190   -6.1890    5.0210 N.pl3  86  ARG86       0.1354
    101  N         61.3180    1.5360   -5.3590 N.3    96  ARG96      -0.1245
    102  CA        61.2920    2.7910   -4.6370 C.3    96  ARG96       0.1563
    103  C         62.2380    3.7960   -5.2510 C.2    96  ARG96       0.2260
    104  O         63.3000    3.4400   -5.7810 O.2    96  ARG96      -0.2867
    105  CB        61.5550    2.6020   -3.1540 C.3    96  ARG96       0.0307
    106  CG        62.9190    2.4600   -2.7940 C.3    96  ARG96       0.0489
    107  CD        63.0430    2.2440   -1.2790 C.3    96  ARG96       0.2205
    108  NE        64.4290    1.8850   -1.1020 N.pl3  96  ARG96      -0.0865
    109  CZ        64.9440    1.3260   -0.0210 C.cat  96  ARG96       0.5346
    110  NH1       64.1660    1.0630    1.0130 N.pl3  96  ARG96       0.1354
    111  NH2       66.2400    1.0400    0.0020 N.pl3  96  ARG96       0.1354
@<TRIPOS>BOND
     1   104   103    2
     2   101   102    1
     3   103   102    1
     4   102   105    1
     5    80    79    2
     6    81    79   am
     7    76    75    2
     8    79    78    1
     9    77    78    1
    10    77    74    1
    11    73    74    1
    12    84    85    2
    13    84    83    1
    14    75    74    1
    15    75    82   am
    16   105   106    1
    17   106   107    1
    18    92    93    2
    19    92    91    1
    20    83    82    1
    21    83    86    1
    22    88    87    2
    23    90    91    1
    24    91    94    1
    25   107   108    1
    26   108   109    2
    27    87    86    1
    28    87    89   am
    29    94    95    1
    30   109   111    1
    31   109   110    1
    32    95    96    1
    33    96    97    1
    34    97    98    2
    35    53    54    1
    36    56    55    2
    37    98    99    1
    38    98   100    1
    39    57    54    1
    40    57    58    1
    41    54    55    1
    42    72    70    1
    43    59    58    1
    44    59    60    1
    45    69    70    2
    46    69    68    1
    47    70    71    1
    48    67    66    1
    49    67    68    1
    50    66    63    1
    51    62    63    1
    52    60    61    1
    53    65    64    2
    54    63    64    1
    55    36    37    1
    56    36    35    1
    57    11     9    1
    58    35    34    1
    59    49    50    1
    60    49    46    1
    61    52    50   am
    62    43    42    1
    63     9    10    1
    64     9     8    2
    65    44    42    1
    66    50    51    2
    67    42    39    1
    68    34    33    1
    69     8     7    1
    70    46    47    1
    71    46    45    1
    72    47    48    2
    73    33    30    1
    74    39    38    1
    75    39    40    1
    76     7     6    1
    77    38    31   am
    78    28    27    1
    79    27    24    1
    80    40    41    2
    81    31    30    1
    82    31    32    2
    83    29    30    1
    84    29    25   am
    85     5     6    1
    86     5     2    1
    87    24    25    1
    88    24    23    1
    89    25    26    2
    90    15    14    2
    91     1     2    1
    92     2     3    1
    93    23    14   am
    94    14    13    1
    95     4     3    2
    96    13    12    1
    97    13    16    1
    98    16    17    1
    99    17    18    1
   100    18    19    1
   101    19    20    2
   102    20    22    1
   103    20    21    1
