@<TRIPOS>MOLECULE
tmp/3c5nB00.pdb
 86 81 0 0 0
SMALL
GASTEIGER

@<TRIPOS>ATOM
      1  N         54.0680   20.3160   15.3280 N.3    21  ARG21      -0.1245
      2  CA        54.5010   19.1320   16.0250 C.3    21  ARG21       0.1563
      3  C         53.5310   18.8680   17.1770 C.2    21  ARG21       0.2260
      4  O         53.1720   19.7880   17.9280 O.2    21  ARG21      -0.2867
      5  CB        55.9150   19.3570   16.5610 C.3    21  ARG21       0.0307
      6  CG        56.4140   18.2760   17.5020 C.3    21  ARG21       0.0489
      7  CD        57.8770   18.5250   17.8480 C.3    21  ARG21       0.2205
      8  NE        58.0480   19.7750   18.5760 N.pl3  21  ARG21      -0.0865
      9  CZ        59.2150   20.3160   18.8820 C.cat  21  ARG21       0.5346
     10  NH1       60.3450   19.7160   18.5340 N.pl3  21  ARG21       0.1354
     11  NH2       59.2650   21.4790   19.5270 N.pl3  21  ARG21       0.1354
     12  N         53.5140   16.8350   20.4250 N.3    23  LYS23      -0.1245
     13  CA        54.2070   16.0410   21.4190 C.3    23  LYS23       0.1561
     14  C         53.1870   15.5350   22.4270 C.2    23  LYS23       0.2260
     15  O         53.5540   14.9270   23.4190 O.2    23  LYS23      -0.2867
     16  CB        55.2460   16.8780   22.1590 C.3    23  LYS23       0.0271
     17  CG        56.4350   17.2720   21.3470 C.3    23  LYS23       0.0035
     18  CD        57.5410   17.8290   22.2250 C.3    23  LYS23       0.0206
     19  CE        58.7520   18.2180   21.3890 C.3    23  LYS23       0.1093
     20  NZ        59.4150   17.0300   20.7300 N.3    23  LYS23      -0.1314
     21  N         64.1880   32.0670   17.6080 N.3   173  ALA173     -0.1231
     22  CA        65.5000   31.4730   17.4230 C.3   173  ALA173      0.1694
     23  C         65.3670   29.9380   17.4100 C.2   173  ALA173      0.2593
     24  O         64.5250   29.3820   18.1250 O.2   173  ALA173     -0.2718
     25  CB        66.4170   31.9220   18.5600 C.3   173  ALA173      0.0304
     26  N         66.1500   29.2640   16.5760 N.am  174  SER174     -0.1938
     27  CA        66.0580   27.8070   16.4590 C.3   174  SER174      0.2055
     28  C         67.2020   27.2870   15.6470 C.2   174  SER174      0.2643
     29  O         67.5380   27.8780   14.6150 O.2   174  SER174     -0.2714
     30  CB        64.7340   27.3810   15.7660 C.3   174  SER174      0.2130
     31  OG        64.6820   25.9460   15.6020 O.3   174  SER174     -0.2179
     32  N         67.7920   26.1770   16.0750 N.am  175  VAL175     -0.1963
     33  CA        68.8430   25.5380   15.3100 C.3   175  VAL175      0.1727
     34  C         68.2100   24.8560   14.0920 C.2   175  VAL175      0.2616
     35  O         68.9150   24.3020   13.2540 O.2   175  VAL175     -0.2715
     36  CB        69.6110   24.5360   16.1590 C.3   175  VAL175      0.0290
     37  CG1       70.6560   23.8080   15.3380 C.3   175  VAL175      0.0023
     38  CG2       70.2590   25.2540   17.3290 C.3   175  VAL175      0.0023
     39  N         66.8800   24.9100   14.0090 N.am  176  LYS176     -0.1977
     40  CA        66.1580   24.3830   12.8610 C.3   176  LYS176      0.1596
     41  C         65.9540   25.4080   11.7400 C.2   176  LYS176      0.2287
     42  O         65.5860   25.0070   10.6230 O.2   176  LYS176     -0.2864
     43  CB        64.7880   23.7860   13.2660 C.3   176  LYS176      0.0298
     44  CG        64.8190   22.7130   14.3620 C.3   176  LYS176      0.0038
     45  CD        63.4080   22.5510   14.9650 C.3   176  LYS176      0.0206
     46  CE        63.3690   21.6640   16.1480 C.3   176  LYS176      0.1093
     47  NZ        64.3990   22.0840   17.0970 N.3   176  LYS176     -0.1314
     48  N         61.1030   28.4100   13.0990 N.3   195  ARG195     -0.1245
     49  CA        60.2240   28.3220   14.2530 C.3   195  ARG195      0.1563
     50  C         59.3460   29.5810   14.4160 C.2   195  ARG195      0.2260
     51  O         59.8200   30.7080   14.2860 O.2   195  ARG195     -0.2867
     52  CB        61.0590   28.1360   15.5210 C.3   195  ARG195      0.0307
     53  CG        60.2560   27.8980   16.7700 C.3   195  ARG195      0.0489
     54  CD        61.1640   27.7420   17.9280 C.3   195  ARG195      0.2205
     55  NE        61.8490   26.4460   18.0250 N.pl3 195  ARG195     -0.0865
     56  CZ        61.2890   25.3320   18.4710 C.cat 195  ARG195      0.5346
     57  NH1       62.0220   24.2400   18.5890 N.pl3 195  ARG195      0.1354
     58  NH2       60.0040   25.3130   18.8220 N.pl3 195  ARG195      0.1354
     59  N         56.3980   27.1920   20.1550 N.3   198  GLU198     -0.1245
     60  CA        56.9800   26.0240   20.8030 C.3   198  GLU198      0.1567
     61  C         56.8500   24.7760   19.9150 C.2   198  GLU198      0.2260
     62  O         57.7560   23.9560   19.8300 O.2   198  GLU198     -0.2867
     63  CB        56.3040   25.8020   22.1590 C.3   198  GLU198      0.0388
     64  CG        56.5020   24.4120   22.7500 C.3   198  GLU198      0.1160
     65  CD        57.9490   24.1320   23.1110 C.2   198  GLU198      0.3649
     66  OE1       58.2910   22.9550   23.3640 O.co2 198  GLU198     -0.2457
     67  OE2       58.7430   25.0960   23.1380 O.co2 198  GLU198     -0.2457
     68  N         64.8870   17.9320   12.8880 N.3   222  PHE222     -0.1227
     69  CA        64.4360   17.7190   14.2540 C.3   222  PHE222      0.1736
     70  C         65.3510   16.7090   14.9440 C.2   222  PHE222      0.2595
     71  O         65.9070   15.8270   14.3130 O.2   222  PHE222     -0.2718
     72  CB        62.9750   17.2210   14.3390 C.3   222  PHE222      0.0547
     73  CG        61.9670   18.2910   14.0730 C.ar  222  PHE222     -0.0202
     74  CD1       61.3840   19.0010   15.1010 C.ar  222  PHE222     -0.0042
     75  CD2       61.6330   18.6220   12.7570 C.ar  222  PHE222     -0.0042
     76  CE1       60.4680   20.0300   14.8290 C.ar  222  PHE222     -0.0003
     77  CE2       60.7530   19.6310   12.4870 C.ar  222  PHE222     -0.0003
     78  CZ        60.1550   20.3420   13.5150 C.ar  222  PHE222     -0.0000
     79  N         65.4640   16.8240   16.2500 N.am  223  ASP223     -0.1974
     80  CA        66.3410   15.9120   16.9800 C.3   223  ASP223      0.1709
     81  C         65.7520   14.4960   16.9840 C.2   223  ASP223      0.2293
     82  O         66.5050   13.5200   16.9090 O.2   223  ASP223     -0.2864
     83  CB        66.6180   16.4430   18.3900 C.3   223  ASP223      0.1436
     84  CG        67.1260   17.8850   18.3760 C.2   223  ASP223      0.3671
     85  OD1       66.2870   18.8090   18.3200 O.co2 223  ASP223     -0.2456
     86  OD2       68.3580   18.1010   18.4180 O.co2 223  ASP223     -0.2456
@<TRIPOS>BOND
     1    42    41    2
     2    41    40    1
     3    77    75   ar
     4    77    78   ar
     5    75    73   ar
     6    40    43    1
     7    40    39    1
     8    68    69    1
     9    48    49    1
    10    35    34    2
    11    43    44    1
    12    78    76   ar
    13    39    34   am
    14    73    72    1
    15    73    74   ar
    16    34    33    1
    17    49    50    1
    18    49    52    1
    19    69    72    1
    20    69    70    1
    21    51    50    2
    22    71    70    2
    23    44    45    1
    24    29    28    2
    25    76    74   ar
    26    70    79   am
    27    45    46    1
    28    33    32    1
    29    33    36    1
    30     1     2    1
    31    37    36    1
    32    52    53    1
    33    31    30    1
    34    28    32   am
    35    28    27    1
    36    30    27    1
    37     2     5    1
    38     2     3    1
    39    46    47    1
    40    36    38    1
    41    79    80    1
    42    27    26    1
    43     5     6    1
    44    26    23   am
    45    53    54    1
    46    82    81    2
    47    80    81    1
    48    80    83    1
    49     3     4    2
    50    23    22    1
    51    23    24    2
    52    22    21    1
    53    22    25    1
    54     6     7    1
    55     7     8    1
    56    54    55    1
    57    55    56    2
    58    85    84   ar
    59    84    83    1
    60    84    86   ar
    61    56    57    1
    62    56    58    1
    63    10     9    1
    64     8     9    2
    65     9    11    1
    66    62    61    2
    67    61    60    1
    68    59    60    1
    69    12    13    1
    70    20    19    1
    71    60    63    1
    72    17    16    1
    73    17    18    1
    74    19    18    1
    75    13    16    1
    76    13    14    1
    77    63    64    1
    78    14    15    2
    79    64    65    1
    80    65    67   ar
    81    65    66   ar
