@<TRIPOS>MOLECULE
tmp/3c5qA01.pdb
 106 100 0 0 0
SMALL
GASTEIGER

@<TRIPOS>ATOM
      1  N        -27.1670   12.6210   15.1470 N.3    44  LYS44      -0.1245
      2  CA       -26.4260   11.5380   15.7880 C.3    44  LYS44       0.1561
      3  C        -25.9360   11.8970   17.2040 C.2    44  LYS44       0.2260
      4  O        -25.8310   11.0330   18.0670 O.2    44  LYS44      -0.2867
      5  CB       -25.2340   11.1470   14.8990 C.3    44  LYS44       0.0271
      6  CG       -24.4000   12.3520   14.4440 C.3    44  LYS44       0.0035
      7  CD       -23.1850   11.9680   13.6000 C.3    44  LYS44       0.0206
      8  CE       -23.5550   11.7110   12.1420 C.3    44  LYS44       0.1093
      9  NZ       -24.0870   12.9340   11.4610 N.3    44  LYS44      -0.1314
     10  N        -11.1720    5.9230   15.9830 N.3   145  TYR145     -0.1227
     11  CA       -12.5900    5.6880   15.7130 C.3   145  TYR145      0.1736
     12  C        -13.2830    6.9920   15.3270 C.2   145  TYR145      0.2595
     13  O        -14.2560    6.9950   14.5750 O.2   145  TYR145     -0.2718
     14  CB       -13.2780    5.0790   16.9400 C.3   145  TYR145      0.0548
     15  CG       -12.9410    3.6240   17.1920 C.ar  145  TYR145     -0.0200
     16  CD1      -13.4570    2.9520   18.3000 C.ar  145  TYR145     -0.0009
     17  CD2      -12.1120    2.9130   16.3180 C.ar  145  TYR145     -0.0009
     18  CE1      -13.1580    1.6140   18.5330 C.ar  145  TYR145      0.0417
     19  CE2      -11.8080    1.5730   16.5440 C.ar  145  TYR145      0.0417
     20  CZ       -12.3320    0.9300   17.6530 C.ar  145  TYR145      0.1957
     21  OH       -12.0250   -0.3940   17.8810 O.3   145  TYR145     -0.2866
     22  N        -12.7530    8.0980   15.8360 N.am  146  LEU146     -0.1980
     23  CA       -13.2990    9.4240   15.5770 C.3   146  LEU146      0.1596
     24  C        -12.5940   10.1500   14.4340 C.2   146  LEU146      0.2287
     25  O        -12.8690   11.3180   14.1730 O.2   146  LEU146     -0.2864
     26  CB       -13.2020   10.2690   16.8470 C.3   146  LEU146      0.0297
     27  CG       -13.7940    9.5950   18.0890 C.3   146  LEU146      0.0022
     28  CD1      -13.5730   10.4890   19.2890 C.3   146  LEU146      0.0001
     29  CD2      -15.2870    9.3150   17.8830 C.3   146  LEU146      0.0001
     30  N        -11.9740   10.4800   10.4890 N.3   148  THR148     -0.1218
     31  CA       -12.6140   10.1210    9.2180 C.3   148  THR148      0.1862
     32  C        -12.0610   10.7870    7.9500 C.2   148  THR148      0.2287
     33  O        -12.6310   10.6190    6.8710 O.2   148  THR148     -0.2866
     34  CB       -14.1370   10.4380    9.2640 C.3   148  THR148      0.1770
     35  OG1      -14.3230   11.8440    9.4810 O.3   148  THR148     -0.2211
     36  CG2      -14.8170    9.6720   10.3750 C.3   148  THR148      0.0375
     37  N        -15.5380   16.1730    6.0390 N.3   183  HIS183     -0.1241
     38  CA       -15.6120   16.0200    7.4920 C.3   183  HIS183      0.1621
     39  C        -14.4500   15.1050    7.8880 C.2   183  HIS183      0.2264
     40  O        -14.5420   13.8760    7.7790 O.2   183  HIS183     -0.2867
     41  CB       -16.9430   15.3840    7.8990 C.3   183  HIS183      0.0745
     42  CG       -17.1000   15.2190    9.3790 C.ar  183  HIS183      0.0817
     43  ND1      -17.5030   16.2480   10.2030 N.ar  183  HIS183     -0.2268
     44  CD2      -16.8360   14.1680   10.1920 C.ar  183  HIS183      0.1154
     45  CE1      -17.4760   15.8410   11.4580 C.ar  183  HIS183      0.1986
     46  NE2      -17.0750   14.5830   11.4800 N.ar  183  HIS183     -0.2212
     47  N        -14.0040   13.9430   14.4840 N.3   186  SER186     -0.1217
     48  CA       -14.8060   14.4240   15.6110 C.3   186  SER186      0.1889
     49  C        -13.9390   14.6000   16.8590 C.2   186  SER186      0.2288
     50  O        -12.9330   13.9070   17.0320 O.2   186  SER186     -0.2866
     51  CB       -15.9470   13.4470   15.9190 C.3   186  SER186      0.2089
     52  OG       -16.7320   13.9100   17.0060 O.3   186  SER186     -0.2183
     53  N        -21.5670   17.4940   18.7110 N.3   260  ARG260     -0.1245
     54  CA       -21.0430   17.4720   20.0640 C.3   260  ARG260      0.1563
     55  C        -20.9870   18.8630   20.6930 C.2   260  ARG260      0.2260
     56  O        -21.5040   19.0660   21.7950 O.2   260  ARG260     -0.2867
     57  CB       -19.6480   16.8460   20.0630 C.3   260  ARG260      0.0307
     58  CG       -19.1140   16.5040   21.4350 C.3   260  ARG260      0.0489
     59  CD       -17.6150   16.2960   21.3690 C.3   260  ARG260      0.2205
     60  NE       -17.2480   15.3110   20.3580 N.pl3 260  ARG260     -0.0865
     61  CZ       -17.3680   13.9970   20.5130 C.cat 260  ARG260      0.5346
     62  NH1      -17.8480   13.5040   21.6470 N.pl3 260  ARG260      0.1354
     63  NH2      -17.0040   13.1770   19.5320 N.pl3 260  ARG260      0.1354
     64  N        -19.3300    5.8840   25.8650 N.3   294  ARG294     -0.1245
     65  CA       -18.1060    6.5830   25.4920 C.3   294  ARG294      0.1563
     66  C        -16.8430    6.0850   26.1920 C.2   294  ARG294      0.2260
     67  O        -15.8700    5.7150   25.5380 O.2   294  ARG294     -0.2867
     68  CB       -18.2580    8.0910   25.7120 C.3   294  ARG294      0.0307
     69  CG       -19.4160    8.7310   24.9470 C.3   294  ARG294      0.0489
     70  CD       -19.0750   10.1500   24.5180 C.3   294  ARG294      0.2205
     71  NE       -18.0010   10.1500   23.5320 N.pl3 294  ARG294     -0.0865
     72  CZ       -16.8360   10.7730   23.6850 C.cat 294  ARG294      0.5346
     73  NH1      -16.5840   11.4590   24.7890 N.pl3 294  ARG294      0.1354
     74  NH2      -15.9170   10.6950   22.7360 N.pl3 294  ARG294      0.1354
     75  N        -14.2300    4.5440   23.6400 N.3   298  TYR298     -0.1241
     76  CA       -13.1610    5.4490   23.2290 C.3   298  TYR298      0.1605
     77  C        -12.1890    5.8000   24.3450 C.2   298  TYR298      0.2264
     78  O        -11.3070    6.6460   24.1560 O.2   298  TYR298     -0.2867
     79  CB       -13.7690    6.7480   22.6890 C.3   298  TYR298      0.0534
     80  CG       -14.9640    6.5520   21.7790 C.ar  298  TYR298     -0.0201
     81  CD1      -14.7990    6.1910   20.4420 C.ar  298  TYR298     -0.0009
     82  CD2      -16.2610    6.7430   22.2550 C.ar  298  TYR298     -0.0009
     83  CE1      -15.8940    6.0290   19.5990 C.ar  298  TYR298      0.0417
     84  CE2      -17.3690    6.5830   21.4230 C.ar  298  TYR298      0.0417
     85  CZ       -17.1780    6.2280   20.0940 C.ar  298  TYR298      0.1957
     86  OH       -18.2670    6.0790   19.2640 O.3   298  TYR298     -0.2866
     87  N        -23.7050   11.8910   22.1580 N.3   351  TYR351     -0.1241
     88  CA       -23.3650   10.4840   22.0870 C.3   351  TYR351      0.1605
     89  C        -23.5070    9.8470   23.4550 C.2   351  TYR351      0.2264
     90  O        -22.7080    9.0020   23.8530 O.2   351  TYR351     -0.2867
     91  CB       -21.9370   10.3420   21.5550 C.3   351  TYR351      0.0534
     92  CG       -21.7530   11.1180   20.2710 C.ar  351  TYR351     -0.0201
     93  CD1      -22.4080   10.7300   19.1010 C.ar  351  TYR351     -0.0009
     94  CD2      -20.9820   12.2810   20.2410 C.ar  351  TYR351     -0.0009
     95  CE1      -22.3010   11.4830   17.9360 C.ar  351  TYR351      0.0417
     96  CE2      -20.8690   13.0400   19.0840 C.ar  351  TYR351      0.0417
     97  CZ       -21.5290   12.6390   17.9340 C.ar  351  TYR351      0.1957
     98  OH       -21.4210   13.3930   16.7900 O.3   351  TYR351     -0.2866
     99  N        -26.3670    6.5070   21.9800 N.3   355  MET355     -0.1245
    100  CA       -25.6490    5.2460   21.7700 C.3   355  MET355      0.1570
    101  C        -26.0010    4.2260   22.8490 C.2   355  MET355      0.2261
    102  O        -25.4440    3.1260   22.8740 O.2   355  MET355     -0.2867
    103  CB       -24.1310    5.4470   21.8100 C.3   355  MET355      0.0387
    104  CG       -23.5500    6.4090   20.7950 C.3   355  MET355      0.0595
    105  SD       -21.7380    6.3000   20.8970 S.3   355  MET355     -0.1393
    106  CE       -21.3910    5.0730   19.6520 C.3   355  MET355      0.0692
@<TRIPOS>BOND
     1    37    38    1
     2    33    32    2
     3    38    39    1
     4    38    41    1
     5    40    39    2
     6    41    42    1
     7    32    31    1
     8    31    34    1
     9    31    30    1
    10    34    35    1
    11    34    36    1
    12    42    44   ar
    13    42    43   ar
    14    44    46   ar
    15    43    45   ar
    16    45    46   ar
    17     9     8    1
    18     8     7    1
    19     7     6    1
    20    25    24    2
    21    24    23    1
    22     6     5    1
    23    47    48    1
    24    13    12    2
    25     5     2    1
    26     1     2    1
    27    12    11    1
    28    12    22   am
    29    23    22    1
    30    23    26    1
    31    48    51    1
    32    48    49    1
    33    11    10    1
    34    11    14    1
    35     2     3    1
    36    51    52    1
    37    17    19   ar
    38    17    15   ar
    39    19    20   ar
    40    98    97    1
    41    26    27    1
    42    49    50    2
    43    14    15    1
    44    15    16   ar
    45     3     4    2
    46    20    21    1
    47    20    18   ar
    48    29    27    1
    49    97    95   ar
    50    97    96   ar
    51    95    93   ar
    52    27    28    1
    53    16    18   ar
    54    53    54    1
    55    96    94   ar
    56    93    92   ar
    57    86    85    1
    58    63    61    1
    59    83    85   ar
    60    83    81   ar
    61   106   105    1
    62    57    54    1
    63    57    58    1
    64    54    55    1
    65    85    84   ar
    66    94    92   ar
    67    92    91    1
    68    60    61    2
    69    60    59    1
    70    81    80   ar
    71    61    62    1
    72    55    56    2
    73   104   105    1
    74   104   103    1
    75    59    58    1
    76    84    82   ar
    77    91    88    1
    78   100   103    1
    79   100    99    1
    80   100   101    1
    81    80    82   ar
    82    80    79    1
    83    88    87    1
    84    88    89    1
    85    79    76    1
    86    74    72    1
    87   101   102    2
    88    76    75    1
    89    76    77    1
    90    89    90    2
    91    71    72    2
    92    71    70    1
    93    72    73    1
    94    78    77    2
    95    70    69    1
    96    69    68    1
    97    65    68    1
    98    65    64    1
    99    65    66    1
   100    67    66    2
