@<TRIPOS>MOLECULE
tmp/3c5qA00.pdb
 153 145 0 0 0
SMALL
GASTEIGER

@<TRIPOS>ATOM
      1  N        -26.0410   17.9730   13.9360 N.3    42  ALA42      -0.1245
      2  CA       -25.8820   16.5620   13.6030 C.3    42  ALA42       0.1562
      3  C        -26.6930   15.7280   14.5970 C.2    42  ALA42       0.2260
      4  O        -26.2750   15.5250   15.7390 O.2    42  ALA42      -0.2867
      5  CB       -24.4030   16.1820   13.6530 C.3    42  ALA42       0.0290
      6  N        -27.1670   12.6210   15.1470 N.3    44  LYS44      -0.1245
      7  CA       -26.4260   11.5380   15.7880 C.3    44  LYS44       0.1561
      8  C        -25.9360   11.8970   17.2040 C.2    44  LYS44       0.2260
      9  O        -25.8310   11.0330   18.0670 O.2    44  LYS44      -0.2867
     10  CB       -25.2340   11.1470   14.8990 C.3    44  LYS44       0.0271
     11  CG       -24.4000   12.3520   14.4440 C.3    44  LYS44       0.0035
     12  CD       -23.1850   11.9680   13.6000 C.3    44  LYS44       0.0206
     13  CE       -23.5550   11.7110   12.1420 C.3    44  LYS44       0.1093
     14  NZ       -24.0870   12.9340   11.4610 N.3    44  LYS44      -0.1314
     15  N        -28.2930   17.7780    9.9610 N.3    63  ASP63      -0.1239
     16  CA       -27.4130   16.8870    9.2180 C.3    63  ASP63       0.1674
     17  C        -27.8320   15.4750    9.6400 C.2    63  ASP63       0.2266
     18  O        -27.6010   15.0700   10.7800 O.2    63  ASP63      -0.2867
     19  CB       -25.9510   17.1170    9.5800 C.3    63  ASP63       0.1410
     20  CG       -25.1100   15.8700    9.3760 C.2    63  ASP63       0.3668
     21  OD1      -25.2400   15.2460    8.2960 O.co2  63  ASP63      -0.2456
     22  OD2      -24.3280   15.5080   10.2900 O.co2  63  ASP63      -0.2456
     23  N        -26.2640   12.6430    4.7580 N.3    86  SER86      -0.1217
     24  CA       -24.9540   12.0470    4.4920 C.3    86  SER86       0.1889
     25  C        -25.0880   10.5570    4.7750 C.2    86  SER86       0.2288
     26  O        -26.1190   10.1100    5.2750 O.2    86  SER86      -0.2866
     27  CB       -23.8790   12.6330    5.4150 C.3    86  SER86       0.2089
     28  OG       -23.1250   13.6530    4.7760 O.3    86  SER86      -0.2183
     29  N        -19.0440   14.1960   -1.1380 N.3   133  ARG133     -0.1245
     30  CA       -18.1020   14.2430   -0.0270 C.3   133  ARG133      0.1563
     31  C        -16.7120   13.8250   -0.4920 C.2   133  ARG133      0.2260
     32  O        -16.5300   12.7450   -1.0540 O.2   133  ARG133     -0.2867
     33  CB       -18.5640   13.3120    1.1010 C.3   133  ARG133      0.0307
     34  CG       -17.7130   13.4080    2.3440 C.3   133  ARG133      0.0489
     35  CD       -18.2220   12.5240    3.4730 C.3   133  ARG133      0.2205
     36  NE       -17.3290   12.5860    4.6280 N.pl3 133  ARG133     -0.0865
     37  CZ       -17.5570   11.9960    5.7990 C.cat 133  ARG133      0.5346
     38  NH1      -18.6630   11.2880    5.9970 N.pl3 133  ARG133      0.1354
     39  NH2      -16.6700   12.1170    6.7800 N.pl3 133  ARG133      0.1354
     40  N        -11.9740   10.4800   10.4890 N.3   148  THR148     -0.1218
     41  CA       -12.6140   10.1210    9.2180 C.3   148  THR148      0.1862
     42  C        -12.0610   10.7870    7.9500 C.2   148  THR148      0.2287
     43  O        -12.6310   10.6190    6.8710 O.2   148  THR148     -0.2866
     44  CB       -14.1370   10.4380    9.2640 C.3   148  THR148      0.1770
     45  OG1      -14.3230   11.8440    9.4810 O.3   148  THR148     -0.2211
     46  CG2      -14.8170    9.6720   10.3750 C.3   148  THR148      0.0375
     47  N        -15.0250    7.0800    4.2690 N.3   155  PHE155     -0.1241
     48  CA       -15.7950    8.2770    3.9550 C.3   155  PHE155      0.1605
     49  C        -15.2570    9.1590    2.8390 C.2   155  PHE155      0.2264
     50  O        -14.0540    9.4250    2.7660 O.2   155  PHE155     -0.2867
     51  CB       -15.9530    9.1090    5.2240 C.3   155  PHE155      0.0534
     52  CG       -16.5820    8.3570    6.3560 C.ar  155  PHE155     -0.0203
     53  CD1      -17.9360    8.0290    6.3210 C.ar  155  PHE155     -0.0042
     54  CD2      -15.8240    7.9660    7.4570 C.ar  155  PHE155     -0.0042
     55  CE1      -18.5200    7.3250    7.3680 C.ar  155  PHE155     -0.0003
     56  CE2      -16.4050    7.2600    8.5110 C.ar  155  PHE155     -0.0003
     57  CZ       -17.7480    6.9420    8.4640 C.ar  155  PHE155     -0.0000
     58  N        -18.4040   18.7750   -0.0120 N.3   181  HIS181     -0.1241
     59  CA       -18.4640   18.5120    1.4200 C.3   181  HIS181      0.1621
     60  C        -17.3130   17.6800    1.9670 C.2   181  HIS181      0.2264
     61  O        -16.7760   16.8020    1.2760 O.2   181  HIS181     -0.2867
     62  CB       -19.8030   17.8200    1.7440 C.3   181  HIS181      0.0745
     63  CG       -19.8840   17.2600    3.1330 C.ar  181  HIS181      0.0817
     64  ND1      -19.0780   16.2310    3.5710 N.ar  181  HIS181     -0.2268
     65  CD2      -20.6620   17.6040    4.1880 C.ar  181  HIS181      0.1154
     66  CE1      -19.3520   15.9670    4.8360 C.ar  181  HIS181      0.1986
     67  NE2      -20.3090   16.7860    5.2340 N.ar  181  HIS181     -0.2212
     68  N        -15.5380   16.1730    6.0390 N.3   183  HIS183     -0.1241
     69  CA       -15.6120   16.0200    7.4920 C.3   183  HIS183      0.1621
     70  C        -14.4500   15.1050    7.8880 C.2   183  HIS183      0.2264
     71  O        -14.5420   13.8760    7.7790 O.2   183  HIS183     -0.2867
     72  CB       -16.9430   15.3840    7.8990 C.3   183  HIS183      0.0745
     73  CG       -17.1000   15.2190    9.3790 C.ar  183  HIS183      0.0817
     74  ND1      -17.5030   16.2480   10.2030 N.ar  183  HIS183     -0.2268
     75  CD2      -16.8360   14.1680   10.1920 C.ar  183  HIS183      0.1154
     76  CE1      -17.4760   15.8410   11.4580 C.ar  183  HIS183      0.1986
     77  NE2      -17.0750   14.5830   11.4800 N.ar  183  HIS183     -0.2212
     78  N        -14.0040   13.9430   14.4840 N.3   186  SER186     -0.1202
     79  CA       -14.8060   14.4240   15.6110 C.3   186  SER186      0.2020
     80  C        -13.9390   14.6000   16.8590 C.2   186  SER186      0.2618
     81  O        -12.9330   13.9070   17.0320 O.2   186  SER186     -0.2717
     82  CB       -15.9470   13.4470   15.9190 C.3   186  SER186      0.2103
     83  OG       -16.7320   13.9100   17.0060 O.3   186  SER186     -0.2182
     84  N        -14.3570   15.5170   17.7300 N.am  187  GLN187     -0.1979
     85  CA       -13.6350   15.8420   18.9600 C.3   187  GLN187      0.1601
     86  C        -12.2430   16.3470   18.5970 C.2   187  GLN187      0.2287
     87  O        -11.2390   15.8550   19.1010 O.2   187  GLN187     -0.2864
     88  CB       -13.5220   14.6190   19.8680 C.3   187  GLN187      0.0394
     89  CG       -12.8550   14.8940   21.2250 C.3   187  GLN187      0.0908
     90  CD       -13.4850   16.0650   21.9590 C.2   187  GLN187      0.2608
     91  OE1      -14.6460   16.3950   21.7390 O.2   187  GLN187     -0.2717
     92  NE2      -12.7230   16.6890   22.8440 N.am  187  GLN187     -0.0878
     93  N        -17.0770   18.5210   13.9360 N.3   223  GLY223     -0.1210
     94  CA       -15.7530   18.1590   14.4060 C.3   223  GLY223      0.1956
     95  C        -15.1600   18.8910   15.5870 C.2   223  GLY223      0.2611
     96  O        -14.2940   18.3450   16.2680 O.2   223  GLY223     -0.2717
     97  N        -15.5910   20.1210   15.8340 N.am  224  ILE224     -0.1979
     98  CA       -15.0500   20.8710   16.9590 C.3   224  ILE224      0.1595
     99  C        -15.3240   20.1190   18.2480 C.2   224  ILE224      0.2287
    100  O        -16.4770   19.8050   18.5570 O.2   224  ILE224     -0.2864
    101  CB       -15.6620   22.2850   17.0350 C.3   224  ILE224      0.0276
    102  CG1      -15.1460   23.1250   15.8660 C.3   224  ILE224      0.0022
    103  CG2      -15.3040   22.9470   18.3620 C.3   224  ILE224      0.0022
    104  CD1      -15.5490   24.5870   15.9320 C.3   224  ILE224      0.0001
    105  N        -21.8100   21.3500   10.2630 N.3   257  GLU257     -0.1231
    106  CA       -22.5870   20.2390   10.7970 C.3   257  GLU257      0.1684
    107  C        -22.1430   19.8700   12.2120 C.2   257  GLU257      0.2434
    108  O        -21.8050   18.7150   12.4850 O.2   257  GLU257     -0.2733
    109  CB       -22.4450   19.0310    9.8760 C.3   257  GLU257      0.0402
    110  CG       -22.7160   19.3540    8.4210 C.3   257  GLU257      0.1161
    111  CD       -22.4920   18.1660    7.5180 C.2   257  GLU257      0.3649
    112  OE1      -21.6700   17.3000    7.8790 O.co2 257  GLU257     -0.2457
    113  OE2      -23.1220   18.1050    6.4420 O.co2 257  GLU257     -0.2457
    114  N        -22.1690   20.8420   13.1400 N.am  258  PRO258     -0.2718
    115  CA       -21.7530   20.5770   14.5170 C.3   258  PRO258      0.1535
    116  C        -22.7510   19.7140   15.2820 C.2   258  PRO258      0.2599
    117  O        -23.9630   19.8180   15.0900 O.2   258  PRO258     -0.2715
    118  CB       -21.6340   21.9760   15.1030 C.3   258  PRO258      0.0310
    119  CG       -22.7780   22.6800   14.4610 C.3   258  PRO258      0.0237
    120  CD       -22.7100   22.2090   13.0140 C.3   258  PRO258      0.0939
    121  N        -22.2350   18.8590   16.1520 N.am  259  GLY259     -0.1941
    122  CA       -23.1040   18.0030   16.9380 C.3   259  GLY259      0.2014
    123  C        -22.7100   18.0880   18.3960 C.2   259  GLY259      0.2639
    124  O        -23.4060   18.6960   19.2100 O.2   259  GLY259     -0.2714
    125  N        -21.5670   17.4940   18.7110 N.am  260  ARG260     -0.1963
    126  CA       -21.0430   17.4720   20.0640 C.3   260  ARG260      0.1729
    127  C        -20.9870   18.8630   20.6930 C.2   260  ARG260      0.2616
    128  O        -21.5040   19.0660   21.7950 O.2   260  ARG260     -0.2715
    129  CB       -19.6480   16.8460   20.0630 C.3   260  ARG260      0.0348
    130  CG       -19.1140   16.5040   21.4350 C.3   260  ARG260      0.0492
    131  CD       -17.6150   16.2960   21.3690 C.3   260  ARG260      0.2205
    132  NE       -17.2480   15.3110   20.3580 N.pl3 260  ARG260     -0.0865
    133  CZ       -17.3680   13.9970   20.5130 C.cat 260  ARG260      0.5346
    134  NH1      -17.8480   13.5040   21.6470 N.pl3 260  ARG260      0.1354
    135  NH2      -17.0040   13.1770   19.5320 N.pl3 260  ARG260      0.1354
    136  N        -20.3760   19.8180   19.9910 N.am  261  SER261     -0.1950
    137  CA       -20.2470   21.1840   20.5080 C.3   261  SER261      0.1924
    138  C        -21.5670   21.9300   20.7060 C.2   261  SER261      0.2314
    139  O        -21.5800   23.0430   21.2140 O.2   261  SER261     -0.2863
    140  CB       -19.2950   22.0160   19.6230 C.3   261  SER261      0.2116
    141  OG       -19.5770   21.8990   18.2400 O.3   261  SER261     -0.2180
    142  N        -23.7050   11.8910   22.1580 N.3   351  TYR351     -0.1241
    143  CA       -23.3650   10.4840   22.0870 C.3   351  TYR351      0.1605
    144  C        -23.5070    9.8470   23.4550 C.2   351  TYR351      0.2264
    145  O        -22.7080    9.0020   23.8530 O.2   351  TYR351     -0.2867
    146  CB       -21.9370   10.3420   21.5550 C.3   351  TYR351      0.0534
    147  CG       -21.7530   11.1180   20.2710 C.ar  351  TYR351     -0.0201
    148  CD1      -22.4080   10.7300   19.1010 C.ar  351  TYR351     -0.0009
    149  CD2      -20.9820   12.2810   20.2410 C.ar  351  TYR351     -0.0009
    150  CE1      -22.3010   11.4830   17.9360 C.ar  351  TYR351      0.0417
    151  CE2      -20.8690   13.0400   19.0840 C.ar  351  TYR351      0.0417
    152  CZ       -21.5290   12.6390   17.9340 C.ar  351  TYR351      0.1957
    153  OH       -21.4210   13.3930   16.7900 O.3   351  TYR351     -0.2866
@<TRIPOS>BOND
     1    29    30    1
     2    32    31    2
     3    31    30    1
     4    30    33    1
     5    58    59    1
     6    33    34    1
     7    61    60    2
     8    59    62    1
     9    59    60    1
    10    62    63    1
    11    34    35    1
    12    50    49    2
    13    49    48    1
    14    63    64   ar
    15    63    65   ar
    16    35    36    1
    17    64    66   ar
    18    48    47    1
    19    48    51    1
    20    65    67   ar
    21    24    23    1
    22    24    25    1
    23    24    27    1
    24    36    37    2
    25    25    26    2
    26    28    27    1
    27    66    67   ar
    28    51    52    1
    29    37    38    1
    30    37    39    1
    31    68    69    1
    32    53    52   ar
    33    53    55   ar
    34    52    54   ar
    35   113   111   ar
    36    43    42    2
    37    55    57   ar
    38    54    56   ar
    39    69    70    1
    40    69    72    1
    41   111   112   ar
    42   111   110    1
    43    71    70    2
    44    72    73    1
    45    42    41    1
    46    21    20   ar
    47   110   109    1
    48    57    56   ar
    49    41    44    1
    50    41    40    1
    51    16    19    1
    52    16    17    1
    53    16    15    1
    54    44    45    1
    55    44    46    1
    56    20    19    1
    57    20    22   ar
    58    73    75   ar
    59    73    74   ar
    60    17    18    2
    61   109   106    1
    62    75    77   ar
    63    74    76   ar
    64   105   106    1
    65   106   107    1
    66    76    77   ar
    67    14    13    1
    68    13    12    1
    69   107   108    2
    70   107   114   am
    71   120   114    1
    72   120   119    1
    73   114   115    1
    74    12    11    1
    75     2     5    1
    76     2     1    1
    77     2     3    1
    78    93    94    1
    79    94    95    1
    80    11    10    1
    81   119   118    1
    82    78    79    1
    83   115   118    1
    84   115   116    1
    85     3     4    2
    86    10     7    1
    87   117   116    2
    88     6     7    1
    89   116   121   am
    90    95    97   am
    91    95    96    2
    92    79    82    1
    93    79    80    1
    94     7     8    1
    95    97    98    1
    96   102   104    1
    97   102   101    1
    98    82    83    1
    99   121   122    1
   100   153   152    1
   101    80    81    2
   102    80    84   am
   103   122   123    1
   104    98   101    1
   105    98    99    1
   106   101   103    1
   107     8     9    2
   108    84    85    1
   109   152   150   ar
   110   152   151   ar
   111   150   148   ar
   112   141   140    1
   113    99   100    2
   114   123   125   am
   115   123   124    2
   116    86    85    1
   117    86    87    2
   118   125   126    1
   119    85    88    1
   120   151   149   ar
   121   148   147   ar
   122   135   133    1
   123   140   137    1
   124    88    89    1
   125   136   137    1
   126   136   127   am
   127   129   126    1
   128   129   130    1
   129   126   127    1
   130   149   147   ar
   131   147   146    1
   132   132   133    2
   133   132   131    1
   134   137   138    1
   135   133   134    1
   136   127   128    2
   137   138   139    2
   138    89    90    1
   139   131   130    1
   140   146   143    1
   141    91    90    2
   142    90    92   am
   143   143   142    1
   144   143   144    1
   145   144   145    2
