@<TRIPOS>MOLECULE
tmp/3c5uA00.pdb
 157 151 0 0 0
SMALL
GASTEIGER

@<TRIPOS>ATOM
      1  N         -5.2240   34.0690   47.4320 N.3   177  PRO177     -0.2102
      2  CA        -5.5510   35.0520   46.4010 C.3   177  PRO177      0.1504
      3  C         -6.9690   34.8660   45.8520 C.2   177  PRO177      0.2575
      4  O         -7.6650   35.8440   45.5690 O.2   177  PRO177     -0.2718
      5  CB        -4.5140   34.7520   45.3120 C.3   177  PRO177      0.0282
      6  CG        -4.2000   33.3160   45.4930 C.3   177  PRO177      0.0208
      7  CD        -4.2110   33.1090   46.9610 C.3   177  PRO177      0.0893
      8  N         -7.3960   33.6110   45.7230 N.am  178  GLU178     -0.1980
      9  CA        -8.7110   33.2990   45.1630 C.3   178  GLU178      0.1602
     10  C         -9.8940   33.7230   46.0030 C.2   178  GLU178      0.2287
     11  O        -11.0130   33.7380   45.5130 O.2   178  GLU178     -0.2864
     12  CB        -8.8370   31.8270   44.8050 C.3   178  GLU178      0.0415
     13  CG        -8.9920   30.9210   45.9910 C.3   178  GLU178      0.1163
     14  CD        -7.7170   30.1870   46.3260 C.2   178  GLU178      0.3649
     15  OE1       -6.6430   30.8250   46.2950 O.co2 178  GLU178     -0.2457
     16  OE2       -7.7920   28.9790   46.6330 O.co2 178  GLU178     -0.2457
     17  N        -10.4740   36.4480   46.7110 N.3   180  MET180     -0.1230
     18  CA       -10.8700   37.7080   46.0940 C.3   180  MET180      0.1702
     19  C        -11.9110   37.5510   44.9850 C.2   180  MET180      0.2592
     20  O        -12.5890   38.5100   44.6000 O.2   180  MET180     -0.2718
     21  CB        -9.6380   38.4910   45.6400 C.3   180  MET180      0.0401
     22  CG        -8.8540   39.0260   46.8240 C.3   180  MET180      0.0596
     23  SD        -7.4760   40.0750   46.4080 S.3   180  MET180     -0.1393
     24  CE        -6.1330   38.8410   46.0740 C.3   180  MET180      0.0692
     25  N        -12.0690   36.3190   44.5120 N.am  181  LEU181     -0.1980
     26  CA       -13.0650   35.9920   43.5010 C.3   181  LEU181      0.1596
     27  C        -14.4370   35.6760   44.1370 C.2   181  LEU181      0.2287
     28  O        -15.3470   35.2450   43.4460 O.2   181  LEU181     -0.2864
     29  CB       -12.5710   34.8010   42.6770 C.3   181  LEU181      0.0297
     30  CG       -11.1690   34.9960   42.0870 C.3   181  LEU181      0.0022
     31  CD1      -10.9120   34.0870   40.8950 C.3   181  LEU181      0.0001
     32  CD2      -10.9430   36.4540   41.6910 C.3   181  LEU181      0.0001
     33  N        -15.9860   33.2980   45.7660 N.3   183  TRP183     -0.1241
     34  CA       -16.4070   32.0540   45.1400 C.3   183  TRP183      0.1605
     35  C        -17.6090   31.2260   45.5680 C.2   183  TRP183      0.2264
     36  O        -18.2030   30.5690   44.7070 O.2   183  TRP183     -0.2867
     37  CB       -15.2010   31.1220   44.9860 C.3   183  TRP183      0.0550
     38  CG       -14.4480   31.2400   43.6900 C.ar  183  TRP183      0.0003
     39  CD1      -14.8070   31.9450   42.5800 C.ar  183  TRP183      0.0946
     40  CD2      -13.2100   30.5950   43.3710 C.ar  183  TRP183      0.0152
     41  NE1      -13.8900   31.7480   41.5710 N.ar  183  TRP183     -0.2442
     42  CE2      -12.8950   30.9290   42.0360 C.ar  183  TRP183      0.0810
     43  CE3      -12.3590   29.7290   44.0710 C.ar  183  TRP183      0.0012
     44  CZ2      -11.7280   30.4870   41.4150 C.ar  183  TRP183      0.0191
     45  CZ3      -11.2240   29.2680   43.4420 C.ar  183  TRP183      0.0001
     46  CH2      -10.9080   29.6590   42.1320 C.ar  183  TRP183      0.0015
     47  N         -6.5920   45.2230   47.4220 N.3   214  HIS214     -0.1226
     48  CA        -6.9240   44.0600   46.6050 C.3   214  HIS214      0.1752
     49  C         -6.0130   43.8980   45.3880 C.2   214  HIS214      0.2595
     50  O         -5.5700   42.7910   45.0830 O.2   214  HIS214     -0.2718
     51  CB        -8.3910   44.1000   46.1840 C.3   214  HIS214      0.0759
     52  CG        -9.3330   43.6280   47.2480 C.ar  214  HIS214      0.0818
     53  ND1       -9.2760   44.0820   48.5500 N.ar  214  HIS214     -0.2268
     54  CD2      -10.3450   42.7260   47.2090 C.ar  214  HIS214      0.1154
     55  CE1      -10.2140   43.4850   49.2660 C.ar  214  HIS214      0.1986
     56  NE2      -10.8850   42.6660   48.4730 N.ar  214  HIS214     -0.2212
     57  N         -5.7250   45.0030   44.7010 N.am  215  ILE215     -0.1980
     58  CA        -4.8700   44.9690   43.5150 C.3   215  ILE215      0.1595
     59  C         -3.3930   44.7970   43.8490 C.2   215  ILE215      0.2287
     60  O         -2.6890   44.0090   43.2110 O.2   215  ILE215     -0.2864
     61  CB        -5.0910   46.1800   42.5890 C.3   215  ILE215      0.0276
     62  CG1       -6.5840   46.4560   42.3900 C.3   215  ILE215      0.0022
     63  CG2       -4.4360   45.9260   41.2580 C.3   215  ILE215      0.0022
     64  CD1       -7.1900   45.6830   41.2560 C.3   215  ILE215      0.0001
     65  N         -2.8080   41.0970   44.6440 N.3   218  LEU218     -0.1245
     66  CA        -2.7710   40.1930   43.4920 C.3   218  LEU218      0.1561
     67  C         -1.4760   40.3910   42.7280 C.2   218  LEU218      0.2260
     68  O         -0.8810   39.4350   42.2300 O.2   218  LEU218     -0.2867
     69  CB        -3.9670   40.4050   42.5580 C.3   218  LEU218      0.0270
     70  CG        -3.9720   39.5140   41.3050 C.3   218  LEU218      0.0019
     71  CD1       -3.9550   38.0340   41.6540 C.3   218  LEU218      0.0001
     72  CD2       -5.1120   39.8390   40.3530 C.3   218  LEU218      0.0001
     73  N         -1.2920   33.3320   35.9130 N.3   228  PRO228     -0.2116
     74  CA        -2.0970   32.1620   35.5420 C.3   228  PRO228      0.1372
     75  C         -1.9120   31.7920   34.0750 C.2   228  PRO228      0.2244
     76  O         -1.9140   32.6560   33.1910 O.2   228  PRO228     -0.2868
     77  CB        -3.5400   32.6320   35.7640 C.3   228  PRO228      0.0268
     78  CG        -3.4440   33.8710   36.5790 C.3   228  PRO228      0.0207
     79  CD        -2.1230   34.4890   36.2800 C.3   228  PRO228      0.0892
     80  N         -5.6080   27.3340   33.3930 N.3   232  LEU232     -0.1245
     81  CA        -5.9690   27.7590   34.7410 C.3   232  LEU232      0.1561
     82  C         -6.9980   28.8830   34.6870 C.2   232  LEU232      0.2260
     83  O         -7.9560   28.8960   35.4580 O.2   232  LEU232     -0.2867
     84  CB        -4.7190   28.1990   35.5110 C.3   232  LEU232      0.0270
     85  CG        -4.8250   28.5160   37.0020 C.3   232  LEU232      0.0019
     86  CD1       -5.8020   27.5930   37.7080 C.3   232  LEU232      0.0001
     87  CD2       -3.4510   28.4550   37.6390 C.3   232  LEU232      0.0001
     88  N        -10.5220   27.9930   34.8690 N.3   235  LYS235     -0.1231
     89  CA       -11.0900   27.8230   36.2070 C.3   235  LYS235      0.1693
     90  C        -11.8220   29.0650   36.7620 C.2   235  LYS235      0.2591
     91  O        -12.8760   28.9480   37.4030 O.2   235  LYS235     -0.2718
     92  CB       -10.0260   27.3100   37.1860 C.3   235  LYS235      0.0285
     93  CG        -9.9710   25.7900   37.2840 C.3   235  LYS235      0.0035
     94  CD        -8.5540   25.2730   37.4920 C.3   235  LYS235      0.0206
     95  CE        -8.5070   23.7480   37.3940 C.3   235  LYS235      0.1093
     96  NZ        -7.9780   23.1060   38.6300 N.3   235  LYS235     -0.1314
     97  N        -11.2620   30.2470   36.5190 N.am  236  ILE236     -0.1980
     98  CA       -11.8940   31.4910   36.9420 C.3   236  ILE236      0.1595
     99  C        -13.2740   31.5920   36.2610 C.2   236  ILE236      0.2287
    100  O        -13.3690   31.6020   35.0350 O.2   236  ILE236     -0.2864
    101  CB       -10.9920   32.6880   36.5950 C.3   236  ILE236      0.0276
    102  CG1       -9.5710   32.4120   37.0770 C.3   236  ILE236      0.0022
    103  CG2      -11.5290   33.9640   37.2040 C.3   236  ILE236      0.0022
    104  CD1       -8.5700   33.5130   36.7600 C.3   236  ILE236      0.0001
    105  N        -15.5480   34.1090   36.6670 N.3   238  SER238     -0.1217
    106  CA       -15.8400   35.4920   36.2930 C.3   238  SER238      0.1889
    107  C        -15.0270   35.9100   35.0850 C.2   238  SER238      0.2288
    108  O        -13.8260   35.6520   35.0070 O.2   238  SER238     -0.2866
    109  CB       -15.5610   36.4440   37.4570 C.3   238  SER238      0.2089
    110  OG       -15.8850   37.7820   37.1280 O.3   238  SER238     -0.2183
    111  N        -14.7440   39.0800   34.2300 N.3   240  SER240     -0.1202
    112  CA       -14.0190   40.2540   34.6860 C.3   240  SER240      0.2020
    113  C        -12.6450   39.8170   35.2070 C.2   240  SER240      0.2618
    114  O        -11.6160   40.3670   34.8030 O.2   240  SER240     -0.2717
    115  CB       -14.7980   40.9680   35.7930 C.3   240  SER240      0.2103
    116  OG       -15.2120   42.2650   35.3840 O.3   240  SER240     -0.2182
    117  N        -12.6330   38.8180   36.0940 N.am  241  ALA241     -0.1979
    118  CA       -11.3840   38.2970   36.6450 C.3   241  ALA241      0.1597
    119  C        -10.4540   37.7840   35.5460 C.2   241  ALA241      0.2287
    120  O         -9.2790   38.1580   35.4900 O.2   241  ALA241     -0.2864
    121  CB       -11.6570   37.2070   37.6470 C.3   241  ALA241      0.0319
    122  N         -9.1210   40.6910   33.6630 N.3   244  TYR244     -0.1227
    123  CA        -8.2350   41.4760   34.5160 C.3   244  TYR244      0.1736
    124  C         -6.8010   40.9450   34.4870 C.2   244  TYR244      0.2595
    125  O         -5.8680   41.6870   34.1980 O.2   244  TYR244     -0.2718
    126  CB        -8.7240   41.5630   35.9640 C.3   244  TYR244      0.0548
    127  CG        -7.7940   42.4150   36.7970 C.ar  244  TYR244     -0.0200
    128  CD1       -6.5880   41.9150   37.2440 C.ar  244  TYR244     -0.0009
    129  CD2       -8.0470   43.7610   36.9940 C.ar  244  TYR244     -0.0009
    130  CE1       -5.6850   42.7140   37.9180 C.ar  244  TYR244      0.0417
    131  CE2       -7.1610   44.5650   37.6840 C.ar  244  TYR244      0.0417
    132  CZ        -5.9780   44.0320   38.1440 C.ar  244  TYR244      0.1957
    133  OH        -5.0740   44.8190   38.8160 O.3   244  TYR244     -0.2866
    134  N         -6.6270   39.6660   34.8140 N.am  245  ILE245     -0.1980
    135  CA        -5.2980   39.0670   34.8350 C.3   245  ILE245      0.1595
    136  C         -4.6530   39.1560   33.4620 C.2   245  ILE245      0.2287
    137  O         -3.4890   39.5530   33.3450 O.2   245  ILE245     -0.2864
    138  CB        -5.3040   37.6140   35.3650 C.3   245  ILE245      0.0276
    139  CG1       -6.6780   37.2350   35.9290 C.3   245  ILE245      0.0022
    140  CG2       -4.2200   37.4180   36.4070 C.3   245  ILE245      0.0022
    141  CD1       -6.6980   35.8860   36.6640 C.3   245  ILE245      0.0001
    142  N         -0.6420   28.9390   42.5800 N.3   277  LEU277     -0.1231
    143  CA        -1.8970   29.5940   42.2270 C.3   277  LEU277      0.1693
    144  C         -3.0930   28.6450   42.1600 C.2   277  LEU277      0.2592
    145  O         -4.1900   28.9960   42.5930 O.2   277  LEU277     -0.2718
    146  CB        -1.7800   30.3980   40.9400 C.3   277  LEU277      0.0284
    147  CG        -2.5900   31.6960   40.9840 C.3   277  LEU277      0.0019
    148  CD1       -1.9290   32.6900   41.9140 C.3   277  LEU277      0.0001
    149  CD2       -2.7750   32.2830   39.5920 C.3   277  LEU277      0.0001
    150  N         -2.8860   27.4510   41.6090 N.am  278  ASP278     -0.1974
    151  CA        -3.9610   26.4750   41.4750 C.3   278  ASP278      0.1709
    152  C         -4.2270   25.7460   42.7810 C.2   278  ASP278      0.2293
    153  O         -3.6250   24.7140   43.0480 O.2   278  ASP278     -0.2864
    154  CB        -3.6240   25.4590   40.3840 C.3   278  ASP278      0.1436
    155  CG        -4.8470   24.7010   39.8860 C.2   278  ASP278      0.3671
    156  OD1       -5.8770   24.6780   40.5880 O.co2 278  ASP278     -0.2456
    157  OD2       -4.7750   24.1080   38.7910 O.co2 278  ASP278     -0.2456
@<TRIPOS>BOND
     1    76    75    2
     2   137   136    2
     3    80    81    1
     4   136   135    1
     5   122   123    1
     6    75    74    1
     7   125   124    2
     8   111   112    1
     9   124   123    1
    10   124   134   am
    11   123   126    1
    12   112   113    1
    13   112   115    1
    14    82    81    1
    15    82    83    2
    16    81    84    1
    17   114   113    2
    18   134   135    1
    19   135   138    1
    20    88    89    1
    21   108   107    2
    22   100    99    2
    23   107   106    1
    24   113   117   am
    25   138   139    1
    26   138   140    1
    27   116   115    1
    28   120   119    2
    29    84    85    1
    30    74    77    1
    31    74    73    1
    32   119   118    1
    33    77    78    1
    34    73    79    1
    35   139   141    1
    36   126   127    1
    37   117   118    1
    38    89    90    1
    39    89    92    1
    40    99    98    1
    41    79    78    1
    42   106   105    1
    43   106   109    1
    44    97    90   am
    45    97    98    1
    46   101    98    1
    47   101   102    1
    48   101   103    1
    49   118   121    1
    50   104   102    1
    51    90    91    2
    52   127   129   ar
    53   127   128   ar
    54   129   131   ar
    55    85    87    1
    56    85    86    1
    57   110   109    1
    58    92    93    1
    59   128   130   ar
    60    93    94    1
    61    95    94    1
    62    95    96    1
    63   131   132   ar
    64   130   132   ar
    65   132   133    1
    66   157   155   ar
    67   149   147    1
    68   155   154    1
    69   155   156   ar
    70    72    70    1
    71   154   151    1
    72    31    30    1
    73   146   147    1
    74   146   143    1
    75   147   148    1
    76    64    62    1
    77    63    61    1
    78    70    71    1
    79    70    69    1
    80    44    42   ar
    81    44    46   ar
    82   151   150    1
    83   151   152    1
    84    41    42   ar
    85    41    39   ar
    86   150   144   am
    87    32    30    1
    88    42    40   ar
    89    30    29    1
    90    46    45   ar
    91   144   143    1
    92   144   145    2
    93   143   142    1
    94    68    67    2
    95    62    61    1
    96    69    66    1
    97    39    38   ar
    98    61    58    1
    99    29    26    1
   100    67    66    1
   101   152   153    2
   102    60    59    2
   103    40    38   ar
   104    40    43   ar
   105    45    43   ar
   106    28    27    2
   107    66    65    1
   108    26    27    1
   109    26    25    1
   110    58    59    1
   111    58    57    1
   112    38    37    1
   113    25    19   am
   114    20    19    2
   115    57    49   am
   116    36    35    2
   117    12     9    1
   118    12    13    1
   119    19    18    1
   120    37    34    1
   121    50    49    2
   122    34    35    1
   123    34    33    1
   124     9     8    1
   125     9    10    1
   126     5     6    1
   127     5     2    1
   128    49    48    1
   129     6     7    1
   130    11    10    2
   131     4     3    2
   132    21    18    1
   133    21    22    1
   134     8     3   am
   135     3     2    1
   136    13    14    1
   137    24    23    1
   138    18    17    1
   139    51    48    1
   140    51    52    1
   141    15    14   ar
   142    14    16   ar
   143     2     1    1
   144    23    22    1
   145    48    47    1
   146     7     1    1
   147    54    52   ar
   148    54    56   ar
   149    52    53   ar
   150    56    55   ar
   151    53    55   ar
