@<TRIPOS>MOLECULE
tmp/3c5uA01.pdb
 167 158 0 0 0
SMALL
GASTEIGER

@<TRIPOS>ATOM
      1  N         -7.7750   40.6980   78.3240 N.3    27  VAL27      -0.1231
      2  CA        -6.6010   40.3240   77.5410 C.3    27  VAL27       0.1692
      3  C         -6.7760   40.6640   76.0550 C.2    27  VAL27       0.2592
      4  O         -7.8600   41.0720   75.6220 O.2    27  VAL27      -0.2718
      5  CB        -6.2590   38.8280   77.7490 C.3    27  VAL27       0.0266
      6  CG1       -7.2160   38.2120   78.7550 C.3    27  VAL27       0.0020
      7  CG2       -6.3250   38.0630   76.4400 C.3    27  VAL27       0.0020
      8  N         -5.7010   40.5120   75.2840 N.am   28  GLY28      -0.1957
      9  CA        -5.7100   40.7740   73.8530 C.3    28  GLY28       0.1869
     10  C         -6.1910   42.1640   73.4780 C.2    28  GLY28       0.2309
     11  O         -6.6670   42.3810   72.3620 O.2    28  GLY28      -0.2863
     12  N         -9.3770   39.0730   70.4120 N.3    32  TYR32      -0.1241
     13  CA       -10.2790   37.9690   70.6970 C.3    32  TYR32       0.1605
     14  C        -11.3220   38.5400   71.6370 C.2    32  TYR32       0.2264
     15  O        -11.0100   38.8740   72.7800 O.2    32  TYR32      -0.2867
     16  CB        -9.5140   36.8290   71.3700 C.3    32  TYR32       0.0534
     17  CG        -8.0130   37.0290   71.3580 C.ar   32  TYR32      -0.0201
     18  CD1       -7.4160   37.9540   72.2040 C.ar   32  TYR32      -0.0009
     19  CD2       -7.2010   36.3250   70.4740 C.ar   32  TYR32      -0.0009
     20  CE1       -6.0470   38.1520   72.2010 C.ar   32  TYR32       0.0417
     21  CE2       -5.8290   36.5170   70.4560 C.ar   32  TYR32       0.0417
     22  CZ        -5.2530   37.4350   71.3270 C.ar   32  TYR32       0.1957
     23  OH        -3.8850   37.6420   71.3370 O.3    32  TYR32      -0.2866
     24  N        -12.6770   38.4850   76.1590 N.3    35  VAL35      -0.1245
     25  CA       -11.9230   37.4240   76.8220 C.3    35  VAL35       0.1561
     26  C        -11.2370   37.9100   78.0830 C.2    35  VAL35       0.2260
     27  O        -10.7830   39.0510   78.1570 O.2    35  VAL35      -0.2867
     28  CB       -10.9170   36.7620   75.8730 C.3    35  VAL35       0.0252
     29  CG1      -10.5160   35.3950   76.3980 C.3    35  VAL35       0.0019
     30  CG2      -11.5000   36.6580   74.4720 C.3    35  VAL35       0.0019
     31  N         -8.2130   31.1060   80.0440 N.3    48  ALA48      -0.1245
     32  CA        -8.8120   32.1910   79.2840 C.3    48  ALA48       0.1562
     33  C        -10.3080   31.9110   79.2810 C.2    48  ALA48       0.2260
     34  O        -10.7410   30.8270   78.8930 O.2    48  ALA48      -0.2867
     35  CB        -8.2710   32.2060   77.8830 C.3    48  ALA48       0.0290
     36  N        -13.8290   33.4320   78.0030 N.3    50  LYS50      -0.1245
     37  CA       -14.4630   34.3700   77.0810 C.3    50  LYS50       0.1561
     38  C        -15.9740   34.3370   77.2780 C.2    50  LYS50       0.2260
     39  O        -16.5760   33.2610   77.3970 O.2    50  LYS50      -0.2867
     40  CB       -14.0720   34.0580   75.6310 C.3    50  LYS50       0.0271
     41  CG       -15.1990   34.1320   74.5990 C.3    50  LYS50       0.0035
     42  CD       -14.6370   34.2940   73.1720 C.3    50  LYS50       0.0206
     43  CE       -15.5000   33.5790   72.1410 C.3    50  LYS50       0.1093
     44  NZ       -15.1540   33.9530   70.7320 N.3    50  LYS50      -0.1314
     45  N        -20.7680   28.6690   67.4440 N.3    68  GLU68      -0.1245
     46  CA       -19.4940   28.6270   68.1650 C.3    68  GLU68       0.1567
     47  C        -19.4350   27.4920   69.1690 C.2    68  GLU68       0.2260
     48  O        -18.4740   26.7300   69.1880 O.2    68  GLU68      -0.2867
     49  CB       -19.1280   29.9360   68.8490 C.3    68  GLU68       0.0388
     50  CG       -17.7170   29.8820   69.3960 C.3    68  GLU68       0.1160
     51  CD       -17.1380   31.2370   69.7030 C.2    68  GLU68       0.3649
     52  OE1      -17.9240   32.1440   70.0430 O.co2  68  GLU68      -0.2457
     53  OE2      -15.8960   31.3840   69.6230 O.co2  68  GLU68      -0.2457
     54  N        -16.4490   24.7250   68.9870 N.3    72  LEU72      -0.1245
     55  CA       -15.6100   24.5310   70.1720 C.3    72  LEU72       0.1561
     56  C        -15.8150   23.1970   70.8980 C.2    72  LEU72       0.2260
     57  O        -14.8500   22.5390   71.2660 O.2    72  LEU72      -0.2867
     58  CB       -15.6930   25.7200   71.1290 C.3    72  LEU72       0.0270
     59  CG       -15.2880   27.0780   70.5460 C.3    72  LEU72       0.0019
     60  CD1      -14.2630   27.7610   71.4260 C.3    72  LEU72       0.0001
     61  CD2      -14.7410   26.9100   69.1590 C.3    72  LEU72       0.0001
     62  N         -7.8010   25.2520   69.9910 N.3    81  ILE81      -0.1231
     63  CA        -8.4980   25.6850   71.1960 C.3    81  ILE81       0.1692
     64  C         -9.7300   24.8200   71.4420 C.2    81  ILE81       0.2593
     65  O        -10.6080   24.6990   70.5860 O.2    81  ILE81      -0.2718
     66  CB        -8.8380   27.1880   71.1560 C.3    81  ILE81       0.0266
     67  CG1       -7.7650   27.9960   71.8910 C.3    81  ILE81       0.0019
     68  CG2      -10.1930   27.4530   71.7750 C.3    81  ILE81       0.0020
     69  CD1       -6.4110   28.0060   71.1860 C.3    81  ILE81       0.0001
     70  N         -9.7670   24.1750   72.5990 N.am   82  GLY82      -0.1942
     71  CA       -10.8740   23.3110   72.9600 C.3    82  GLY82       0.2014
     72  C        -11.5080   23.8170   74.2360 C.2    82  GLY82       0.2638
     73  O        -10.8870   24.5930   74.9660 O.2    82  GLY82      -0.2714
     74  N        -12.7460   23.4020   74.4970 N.am   83  LEU83      -0.1977
     75  CA       -13.4480   23.8520   75.6860 C.3    83  LEU83       0.1596
     76  C        -13.0040   23.0890   76.9250 C.2    83  LEU83       0.2287
     77  O        -12.9820   21.8610   76.9290 O.2    83  LEU83      -0.2864
     78  CB       -14.9560   23.6830   75.5120 C.3    83  LEU83       0.0297
     79  CG       -15.7000   24.6260   74.5670 C.3    83  LEU83       0.0022
     80  CD1      -16.9610   23.9340   74.0590 C.3    83  LEU83       0.0001
     81  CD2      -16.0420   25.9580   75.2420 C.3    83  LEU83       0.0001
     82  N        -17.1870   30.6580   78.0030 N.3   101  LEU101     -0.1231
     83  CA       -16.3180   29.6160   77.4590 C.3   101  LEU101      0.1693
     84  C        -14.9720   29.6270   78.1750 C.2   101  LEU101      0.2592
     85  O        -14.4430   30.6940   78.5080 O.2   101  LEU101     -0.2718
     86  CB       -16.1140   29.8030   75.9460 C.3   101  LEU101      0.0284
     87  CG       -17.3400   30.1490   75.1010 C.3   101  LEU101      0.0019
     88  CD1      -16.9260   30.5140   73.6920 C.3   101  LEU101      0.0001
     89  CD2      -18.3270   28.9910   75.0830 C.3   101  LEU101      0.0001
     90  N        -14.4190   28.4380   78.3990 N.am  102  VAL102     -0.1966
     91  CA       -13.1310   28.3110   79.0680 C.3   102  VAL102      0.1727
     92  C        -12.1290   27.3990   78.3550 C.2   102  VAL102      0.2617
     93  O        -12.4180   26.2390   78.0530 O.2   102  VAL102     -0.2715
     94  CB       -13.2880   27.9010   80.5510 C.3   102  VAL102      0.0290
     95  CG1      -11.9900   28.1560   81.2870 C.3   102  VAL102      0.0023
     96  CG2      -14.4370   28.6440   81.2090 C.3   102  VAL102      0.0023
     97  N        -10.9270   27.9170   78.1490 N.am  103  THR103     -0.1937
     98  CA        -9.8550   27.1560   77.5160 C.3   103  THR103      0.2028
     99  C         -8.5180   27.6180   78.1090 C.2   103  THR103      0.2642
    100  O         -8.4550   28.6110   78.8360 O.2   103  THR103     -0.2714
    101  CB        -9.8860   27.3030   75.9630 C.3   103  THR103      0.1808
    102  OG1       -8.9950   26.3520   75.3620 O.3   103  THR103     -0.2208
    103  CG2       -9.4740   28.7070   75.5340 C.3   103  THR103      0.0379
    104  N         -7.4470   26.9080   77.7890 N.am  104  HIS104     -0.1959
    105  CA        -6.1390   27.2910   78.2810 C.3   104  HIS104      0.1787
    106  C         -5.7700   28.7000   77.8750 C.2   104  HIS104      0.2620
    107  O         -6.1350   29.1540   76.7990 O.2   104  HIS104     -0.2715
    108  CB        -5.0820   26.3230   77.7700 C.3   104  HIS104      0.0785
    109  CG        -5.2380   24.9340   78.3040 C.ar  104  HIS104      0.0821
    110  ND1       -6.1650   24.0440   77.8010 N.ar  104  HIS104     -0.2267
    111  CD2       -4.6250   24.3000   79.3310 C.ar  104  HIS104      0.1154
    112  CE1       -6.0870   22.9080   78.4700 C.ar  104  HIS104      0.1986
    113  NE2       -5.1690   23.0400   79.4130 N.ar  104  HIS104     -0.2212
    114  N         -5.0480   29.3940   78.7490 N.am  105  LEU105     -0.1963
    115  CA        -4.5430   30.7310   78.4460 C.3   105  LEU105      0.1728
    116  C         -3.2460   30.4750   77.6870 C.2   105  LEU105      0.2616
    117  O         -2.6260   29.4310   77.8730 O.2   105  LEU105     -0.2715
    118  CB        -4.2620   31.5050   79.7310 C.3   105  LEU105      0.0311
    119  CG        -3.8550   32.9620   79.5190 C.3   105  LEU105      0.0022
    120  CD1       -4.4220   33.4940   78.2290 C.3   105  LEU105      0.0001
    121  CD2       -4.2720   33.8390   80.6960 C.3   105  LEU105      0.0001
    122  N         -2.8700   31.3660   76.7780 N.am  106  MET106     -0.1963
    123  CA        -1.6640   31.1320   75.9850 C.3   106  MET106      0.1736
    124  C         -0.6260   32.2290   76.1180 C.2   106  MET106      0.2617
    125  O         -0.9060   33.3330   76.6060 O.2   106  MET106     -0.2715
    126  CB        -2.0020   30.9020   74.5090 C.3   106  MET106      0.0427
    127  CG        -3.0810   29.8500   74.2520 C.3   106  MET106      0.0599
    128  SD        -2.4410   28.1580   74.0690 S.3   106  MET106     -0.1393
    129  CE        -0.9400   28.4330   73.1540 C.3   106  MET106      0.0692
    130  N          0.5810   31.9240   75.6650 N.am  107  GLY107     -0.1940
    131  CA         1.6650   32.8780   75.7570 C.3   107  GLY107      0.2014
    132  C          1.4230   34.1350   74.9460 C.2   107  GLY107      0.2639
    133  O          1.2750   35.2330   75.4950 O.2   107  GLY107     -0.2714
    134  N          1.4010   33.9650   73.6270 N.am  108  ALA108     -0.1963
    135  CA         1.1960   35.0660   72.7000 C.3   108  ALA108      0.1728
    136  C          0.9770   34.4930   71.3010 C.2   108  ALA108      0.2616
    137  O          1.0520   33.2750   71.1010 O.2   108  ALA108     -0.2715
    138  CB         2.3980   36.0000   72.7240 C.3   108  ALA108      0.0334
    139  N          0.6760   35.3670   70.3440 N.am  109  ASP109     -0.1971
    140  CA         0.4270   34.9440   68.9710 C.3   109  ASP109      0.1709
    141  C          1.7290   34.9670   68.1890 C.2   109  ASP109      0.2293
    142  O          2.6920   35.6100   68.6110 O.2   109  ASP109     -0.2864
    143  CB        -0.6080   35.8580   68.3030 C.3   109  ASP109      0.1436
    144  CG        -0.3900   37.3330   68.6250 C.2   109  ASP109      0.3671
    145  OD1        0.7690   37.7950   68.5550 O.co2 109  ASP109     -0.2456
    146  OD2       -1.3830   38.0350   68.9270 O.co2 109  ASP109     -0.2456
    147  N         -1.4770   30.7880   68.1210 N.3   154  ALA154     -0.1245
    148  CA        -0.8870   31.1000   69.4240 C.3   154  ALA154      0.1562
    149  C         -0.0030   29.9890   69.9490 C.2   154  ALA154      0.2260
    150  O         -0.2830   28.7990   69.7460 O.2   154  ALA154     -0.2867
    151  CB        -1.9480   31.4580   70.4340 C.3   154  ALA154      0.0290
    152  N         -6.0320   29.1630   67.4770 N.3   164  LEU164     -0.1231
    153  CA        -6.8560   29.9300   68.4030 C.3   164  LEU164      0.1693
    154  C         -8.2430   30.3650   67.9290 C.2   164  LEU164      0.2592
    155  O         -9.2290   30.1740   68.6370 O.2   164  LEU164     -0.2718
    156  CB        -6.0510   31.1610   68.8100 C.3   164  LEU164      0.0284
    157  CG        -6.5060   32.0460   69.9530 C.3   164  LEU164      0.0019
    158  CD1       -6.9540   31.1950   71.1340 C.3   164  LEU164      0.0001
    159  CD2       -5.3700   32.9870   70.3510 C.3   164  LEU164      0.0001
    160  N         -8.3030   31.0080   66.7620 N.am  165  ASP165     -0.1974
    161  CA        -9.5580   31.5190   66.1920 C.3   165  ASP165      0.1709
    162  C         -9.9080   30.7190   64.9400 C.2   165  ASP165      0.2293
    163  O         -9.0080   30.3300   64.2020 O.2   165  ASP165     -0.2864
    164  CB        -9.3820   32.9860   65.7650 C.3   165  ASP165      0.1436
    165  CG        -9.8590   33.9790   66.8230 C.2   165  ASP165      0.3671
    166  OD1      -11.0880   34.0560   67.0630 O.co2 165  ASP165     -0.2456
    167  OD2       -9.0200   34.7470   67.3590 O.co2 165  ASP165     -0.2456
@<TRIPOS>BOND
     1   163   162    2
     2   162   161    1
     3   164   161    1
     4   164   165    1
     5   161   160    1
     6   160   154   am
     7   165   166   ar
     8   165   167   ar
     9    45    46    1
    10   152   153    1
    11   154   153    1
    12   154   155    2
    13   147   148    1
    14    46    49    1
    15    46    47    1
    16   141   142    2
    17   141   140    1
    18   143   144    1
    19   143   140    1
    20   153   156    1
    21   145   144   ar
    22   144   146   ar
    23   156   157    1
    24    49    50    1
    25   140   139    1
    26    54    55    1
    27    61    59    1
    28    47    48    2
    29    50    51    1
    30   148   149    1
    31   148   151    1
    32    53    51   ar
    33    51    52   ar
    34   150   149    2
    35   157   159    1
    36   157   158    1
    37    62    63    1
    38    55    56    1
    39    55    58    1
    40   139   136   am
    41    12    13    1
    42    21    19   ar
    43    21    22   ar
    44    19    17   ar
    45    59    58    1
    46    59    60    1
    47    65    64    2
    48    13    16    1
    49    13    14    1
    50    44    43    1
    51    56    57    2
    52   137   136    2
    53    66    63    1
    54    66    68    1
    55    66    67    1
    56    69    67    1
    57    63    64    1
    58   136   135    1
    59    22    23    1
    60    22    20   ar
    61    17    16    1
    62    17    18   ar
    63    64    70   am
    64    14    15    2
    65    43    42    1
    66    20    18   ar
    67    11    10    2
    68    70    71    1
    69   135   138    1
    70   135   134    1
    71    71    72    1
    72   129   128    1
    73    42    41    1
    74    10     9    1
    75   134   132   am
    76    88    87    1
    77     9     8    1
    78    80    79    1
    79   128   127    1
    80    72    74   am
    81    72    73    2
    82   127   126    1
    83    30    28    1
    84    74    75    1
    85   126   123    1
    86    79    81    1
    87    79    78    1
    88    41    40    1
    89   132   133    2
    90   132   131    1
    91    89    87    1
    92    87    86    1
    93     8     3   am
    94   102   101    1
    95    78    75    1
    96   103   101    1
    97     4     3    2
    98    40    37    1
    99   130   131    1
   100   130   124   am
   101    75    76    1
   102    28    29    1
   103    28    25    1
   104    86    83    1
   105   101    98    1
   106   123   124    1
   107   123   122    1
   108     3     2    1
   109   124   125    2
   110    24    25    1
   111     7     5    1
   112   122   116   am
   113   107   106    2
   114    25    26    1
   115    76    77    2
   116    37    38    1
   117    37    36    1
   118    38    39    2
   119    83    82    1
   120    83    84    1
   121    98    99    1
   122    98    97    1
   123     2     5    1
   124     2     1    1
   125   116   117    2
   126   116   115    1
   127     5     6    1
   128   108   105    1
   129   108   109    1
   130   104    99   am
   131   104   105    1
   132   110   109   ar
   133   110   112   ar
   134   106   105    1
   135   106   114   am
   136    35    32    1
   137    93    92    2
   138    26    27    2
   139    99   100    2
   140    97    92   am
   141    84    90   am
   142    84    85    2
   143   120   119    1
   144   109   111   ar
   145    92    91    1
   146    90    91    1
   147   115   114    1
   148   115   118    1
   149   112   113   ar
   150    34    33    2
   151    91    94    1
   152    33    32    1
   153    32    31    1
   154   111   113   ar
   155   119   118    1
   156   119   121    1
   157    94    96    1
   158    94    95    1
