@<TRIPOS>MOLECULE
tmp/3c61C01.pdb
 99 92 0 0 0
SMALL
GASTEIGER

@<TRIPOS>ATOM
      1  N        -28.4090   66.4200  -28.0880 N.3    45  LYS45      -0.1231
      2  CA       -29.2220   67.5380  -27.5760 C.3    45  LYS45       0.1693
      3  C        -30.6990   67.1850  -27.4990 C.2    45  LYS45       0.2592
      4  O        -31.2910   66.5880  -28.4290 O.2    45  LYS45      -0.2718
      5  CB       -29.0410   68.8170  -28.4200 C.3    45  LYS45       0.0285
      6  CG       -30.0650   69.9590  -28.1570 C.3    45  LYS45       0.0035
      7  CD       -29.9200   70.6240  -26.7530 C.3    45  LYS45       0.0206
      8  CE       -31.1270   71.5470  -26.3710 C.3    45  LYS45       0.1093
      9  NZ       -30.9730   72.2840  -25.0480 N.3    45  LYS45      -0.1314
     10  N        -31.3130   67.5760  -26.3810 N.am   46  SER46      -0.1952
     11  CA       -32.7310   67.3080  -26.1790 C.3    46  SER46       0.1924
     12  C        -33.5220   67.7890  -27.3810 C.2    46  SER46       0.2314
     13  O        -33.4610   68.9750  -27.7270 O.2    46  SER46      -0.2863
     14  CB       -33.2680   67.9710  -24.9190 C.3    46  SER46       0.2116
     15  OG       -32.7520   67.3380  -23.7620 O.3    46  SER46      -0.2180
     16  N        -28.8640   79.8600  -17.9000 N.3    69  ASN69      -0.1240
     17  CA       -29.2710   79.8340  -19.3000 C.3    69  ASN69       0.1653
     18  C        -30.7880   79.8300  -19.4320 C.2    69  ASN69       0.2266
     19  O        -31.4910   79.3070  -18.5800 O.2    69  ASN69      -0.2867
     20  CB       -28.6750   78.6310  -20.0230 C.3    69  ASN69       0.1155
     21  CG       -29.5090   77.3750  -19.8450 C.2    69  ASN69       0.2627
     22  OD1      -30.4900   77.1390  -20.5810 O.2    69  ASN69      -0.2716
     23  ND2      -29.1510   76.5780  -18.8610 N.am   69  ASN69      -0.0877
     24  N        -32.1180   78.5980  -22.6520 N.3    71  MET71      -0.1230
     25  CA       -31.9110   78.3480  -24.0700 C.3    71  MET71       0.1702
     26  C        -33.2100   78.0730  -24.8410 C.2    71  MET71       0.2593
     27  O        -33.2980   78.5060  -25.9820 O.2    71  MET71      -0.2718
     28  CB       -30.8380   77.2760  -24.2710 C.3    71  MET71       0.0401
     29  CG       -29.4670   77.6620  -23.5760 C.3    71  MET71       0.0596
     30  SD       -28.0640   78.3500  -24.4640 S.3    71  MET71      -0.1393
     31  CE       -28.2640   77.9500  -26.2120 C.3    71  MET71       0.0692
     32  N        -34.2100   77.4320  -24.2340 N.am   72  GLY72      -0.1942
     33  CA       -35.5010   77.1840  -24.9180 C.3    72  GLY72       0.2014
     34  C        -35.4970   76.0380  -25.9400 C.2    72  GLY72       0.2638
     35  O        -36.1560   76.1130  -26.9860 O.2    72  GLY72      -0.2714
     36  N        -34.7780   74.9730  -25.6120 N.am   73  LEU73      -0.1977
     37  CA       -34.6500   73.7820  -26.4570 C.3    73  LEU73       0.1596
     38  C        -34.3250   74.0770  -27.9290 C.2    73  LEU73       0.2287
     39  O        -34.9630   73.5240  -28.8160 O.2    73  LEU73      -0.2864
     40  CB       -35.9200   72.9230  -26.3420 C.3    73  LEU73       0.0297
     41  CG       -36.2110   72.2560  -24.9940 C.3    73  LEU73       0.0022
     42  CD1      -37.6130   71.6270  -24.9860 C.3    73  LEU73       0.0001
     43  CD2      -35.1440   71.2070  -24.6450 C.3    73  LEU73       0.0001
     44  N        -36.4540   63.4530  -21.3310 N.3   129  ASN129     -0.1240
     45  CA       -36.3320   64.6740  -20.5290 C.3   129  ASN129      0.1653
     46  C        -37.6740   65.1120  -19.9540 C.2   129  ASN129      0.2266
     47  O        -38.5660   65.5900  -20.6950 O.2   129  ASN129     -0.2867
     48  CB       -35.6750   65.7830  -21.3650 C.3   129  ASN129      0.1155
     49  CG       -35.3830   67.0500  -20.5740 C.2   129  ASN129      0.2627
     50  OD1      -35.6040   67.1190  -19.3750 O.2   129  ASN129     -0.2716
     51  ND2      -34.8560   68.0520  -21.2540 N.am  129  ASN129     -0.0877
     52  N        -37.2660   70.1380  -18.4260 N.3   132  CYS132     -0.1221
     53  CA       -36.8350   71.4200  -19.0290 C.3   132  CYS132      0.1794
     54  C        -37.5420   72.6420  -18.4030 C.2   132  CYS132      0.2443
     55  O        -38.7770   72.7660  -18.5190 O.2   132  CYS132     -0.2733
     56  CB       -37.0680   71.4640  -20.5380 C.3   132  CYS132      0.0970
     57  SG       -36.4810   73.0530  -21.2590 S.3   132  CYS132     -0.0800
     58  N        -36.7610   73.5640  -17.7830 N.am  133  PRO133     -0.2718
     59  CA       -37.3570   74.6900  -17.0580 C.3   133  PRO133      0.1535
     60  C        -37.3620   76.0200  -17.8400 C.2   133  PRO133      0.2598
     61  O        -37.5980   77.0750  -17.2360 O.2   133  PRO133     -0.2715
     62  CB       -36.4490   74.7940  -15.8220 C.3   133  PRO133      0.0310
     63  CG       -35.0600   74.3690  -16.3440 C.3   133  PRO133      0.0237
     64  CD       -35.2890   73.5730  -17.6370 C.3   133  PRO133      0.0939
     65  N        -37.1360   75.9650  -19.1590 N.am  134  ASN134     -0.1973
     66  CA       -36.8660   77.1810  -19.9630 C.3   134  ASN134      0.1688
     67  C        -37.8310   77.4620  -21.1280 C.2   134  ASN134      0.2292
     68  O        -37.7000   78.4940  -21.8060 O.2   134  ASN134     -0.2864
     69  CB       -35.4230   77.1370  -20.4990 C.3   134  ASN134      0.1181
     70  CG       -34.3700   77.1790  -19.3780 C.2   134  ASN134      0.2629
     71  OD1      -33.3810   76.4320  -19.4100 O.2   134  ASN134     -0.2716
     72  ND2      -34.5790   78.0590  -18.3930 N.am  134  ASN134     -0.0877
     73  N        -34.5480   62.0510  -17.3820 N.3   166  LYS166     -0.1245
     74  CA       -33.8000   63.1920  -16.8340 C.3   166  LYS166      0.1561
     75  C        -34.7520   63.9530  -15.9380 C.2   166  LYS166      0.2260
     76  O        -35.8260   64.4060  -16.3860 O.2   166  LYS166     -0.2867
     77  CB       -33.2830   64.0880  -17.9540 C.3   166  LYS166      0.0271
     78  CG       -32.5220   65.3330  -17.4990 C.3   166  LYS166      0.0035
     79  CD       -31.0950   65.0360  -17.0980 C.3   166  LYS166      0.0206
     80  CE       -30.1950   66.2890  -17.0630 C.3   166  LYS166      0.1093
     81  NZ       -29.9100   66.9570  -18.3820 N.3   166  LYS166     -0.1314
     82  N        -31.3490   67.9460  -13.7910 N.3   196  ASN196     -0.1225
     83  CA       -31.3850   69.0510  -14.7020 C.3   196  ASN196      0.1785
     84  C        -31.0130   70.2780  -13.8310 C.2   196  ASN196      0.2597
     85  O        -30.7640   70.1640  -12.6390 O.2   196  ASN196     -0.2718
     86  CB       -32.7840   69.1290  -15.3410 C.3   196  ASN196      0.1169
     87  CG       -32.7650   69.6960  -16.7380 C.2   196  ASN196      0.2627
     88  OD1      -32.0900   70.6760  -17.0090 O.2   196  ASN196     -0.2716
     89  ND2      -33.5480   69.0920  -17.6320 N.am  196  ASN196     -0.0877
     90  N        -30.9300   71.4240  -14.4420 N.am  197  SER197     -0.1952
     91  CA       -30.5620   72.6630  -13.7690 C.3   197  SER197      0.1924
     92  C        -31.4420   72.9350  -12.5540 C.2   197  SER197      0.2314
     93  O        -32.5510   72.3730  -12.4340 O.2   197  SER197     -0.2863
     94  CB       -30.7310   73.8160  -14.7470 C.3   197  SER197      0.2116
     95  OG       -30.1360   73.5360  -15.9990 O.3   197  SER197     -0.2180
     96  N        -32.1500   78.5840  -15.9010 N.3   221  GLY221     -0.1225
     97  CA       -31.6380   77.4750  -15.1360 C.3   221  GLY221      0.1811
     98  C        -30.1840   77.6520  -14.7390 C.2   221  GLY221      0.2280
     99  O        -29.3500   78.1320  -15.5410 O.2   221  GLY221     -0.2866
@<TRIPOS>BOND
     1    39    38    2
     2     4     3    2
     3     5     6    1
     4     5     2    1
     5     6     7    1
     6     1     2    1
     7    38    37    1
     8    13    12    2
     9     2     3    1
    10     3    10   am
    11    12    11    1
    12    35    34    2
    13     7     8    1
    14    37    40    1
    15    37    36    1
    16    10    11    1
    17     8     9    1
    18    40    41    1
    19    31    30    1
    20    11    14    1
    21    27    26    2
    22    34    36   am
    23    34    33    1
    24    41    42    1
    25    41    43    1
    26    14    15    1
    27    33    32    1
    28    26    32   am
    29    26    25    1
    30    30    29    1
    31    28    25    1
    32    28    29    1
    33    25    24    1
    34    68    67    2
    35    48    49    1
    36    48    45    1
    37    44    45    1
    38    57    56    1
    39    51    49   am
    40    67    66    1
    41    47    46    2
    42    22    21    2
    43    49    50    2
    44    56    53    1
    45    45    46    1
    46    69    66    1
    47    69    70    1
    48    20    21    1
    49    20    17    1
    50    66    65    1
    51    21    23   am
    52    18    17    1
    53    18    19    2
    54    71    70    2
    55    70    72   am
    56    17    16    1
    57    65    60   am
    58    53    52    1
    59    53    54    1
    60    55    54    2
    61    54    58   am
    62    81    80    1
    63    77    78    1
    64    77    74    1
    65    60    61    2
    66    60    59    1
    67    58    64    1
    68    58    59    1
    69    64    63    1
    70    89    87   am
    71    78    79    1
    72    73    74    1
    73    79    80    1
    74    59    62    1
    75    88    87    2
    76    74    75    1
    77    87    86    1
    78    76    75    2
    79    63    62    1
    80    95    94    1
    81    96    97    1
    82    99    98    2
    83    86    83    1
    84    97    98    1
    85    94    91    1
    86    83    84    1
    87    83    82    1
    88    90    84   am
    89    90    91    1
    90    84    85    2
    91    91    92    1
    92    92    93    2
