@<TRIPOS>MOLECULE
tmp/3c66A00.pdb
 87 82 0 0 0
SMALL
GASTEIGER

@<TRIPOS>ATOM
      1  N        -16.8470   -5.1310  -14.9800 N.3     7  ILE7       -0.1231
      2  CA       -16.8010   -6.4120  -15.6820 C.3     7  ILE7        0.1692
      3  C        -15.7270   -6.5690  -16.7590 C.2     7  ILE7        0.2592
      4  O        -15.5970   -7.6500  -17.3350 O.2     7  ILE7       -0.2718
      5  CB       -18.1920   -6.7790  -16.2440 C.3     7  ILE7        0.0266
      6  CG1      -18.6790   -5.7020  -17.2190 C.3     7  ILE7        0.0019
      7  CG2      -19.1810   -6.9940  -15.1060 C.3     7  ILE7        0.0020
      8  CD1      -19.6260   -6.1960  -18.2890 C.3     7  ILE7        0.0001
      9  N        -14.9450   -5.5190  -17.0130 N.am    8  THR8       -0.1953
     10  CA       -13.8970   -5.5710  -18.0420 C.3     8  THR8        0.1897
     11  C        -12.5910   -5.0150  -17.5370 C.2     8  THR8        0.2313
     12  O        -11.6490   -4.8260  -18.3200 O.2     8  THR8       -0.2863
     13  CB       -14.2960   -4.7520  -19.2920 C.3     8  THR8        0.1794
     14  OG1      -14.6100   -3.4050  -18.9030 O.3     8  THR8       -0.2208
     15  CG2      -15.5890   -5.2660  -19.9440 C.3     8  THR8        0.0378
     16  N        -10.1230    0.9290  -17.9100 N.3    11  VAL11      -0.1245
     17  CA        -9.6200    1.3620  -19.2090 C.3    11  VAL11       0.1561
     18  C         -8.2230    1.8910  -18.9830 C.2    11  VAL11       0.2260
     19  O         -7.3120    1.4980  -19.6850 O.2    11  VAL11      -0.2867
     20  CB       -10.5310    2.4070  -19.8970 C.3    11  VAL11       0.0252
     21  CG1       -9.8710    2.9830  -21.1270 C.3    11  VAL11       0.0019
     22  CG2      -11.8430    1.7770  -20.2790 C.3    11  VAL11       0.0019
     23  N        -20.5430    3.1460  -13.6130 N.3   240  ARG240     -0.1245
     24  CA       -19.8660    2.3500  -14.6320 C.3   240  ARG240      0.1563
     25  C        -18.5820    3.0340  -15.0930 C.2   240  ARG240      0.2260
     26  O        -17.5380    2.3830  -15.2260 O.2   240  ARG240     -0.2867
     27  CB       -20.8100    2.0590  -15.8040 C.3   240  ARG240      0.0307
     28  CG       -20.2470    1.2610  -16.9860 C.3   240  ARG240      0.0489
     29  CD       -20.1420   -0.2650  -16.8130 C.3   240  ARG240      0.2205
     30  NE       -18.8130   -0.5970  -16.3170 N.pl3 240  ARG240     -0.0865
     31  CZ       -17.8990   -1.3220  -16.9490 C.cat 240  ARG240      0.5346
     32  NH1      -18.1340   -1.8810  -18.1250 N.pl3 240  ARG240      0.1354
     33  NH2      -16.7340   -1.5110  -16.3650 N.pl3 240  ARG240      0.1354
     34  N        -14.1180    2.1590  -14.9630 N.3   244  LEU244     -0.1245
     35  CA       -13.1710    2.1910  -16.0660 C.3   244  LEU244      0.1561
     36  C        -11.9700    3.1090  -15.8080 C.2   244  LEU244      0.2260
     37  O        -10.9440    2.9780  -16.4730 O.2   244  LEU244     -0.2867
     38  CB       -13.8740    2.5700  -17.3670 C.3   244  LEU244      0.0270
     39  CG       -14.9390    1.5780  -17.8480 C.3   244  LEU244      0.0019
     40  CD1      -15.6800    2.1720  -19.0370 C.3   244  LEU244      0.0001
     41  CD2      -14.3770    0.1930  -18.1800 C.3   244  LEU244      0.0001
     42  N        -17.9810    7.6400  -23.7920 N.3   260  ILE260     -0.1245
     43  CA       -18.2580    6.2180  -23.7600 C.3   260  ILE260      0.1561
     44  C        -19.7560    5.9010  -23.8700 C.2   260  ILE260      0.2260
     45  O        -20.1350    4.9970  -24.6090 O.2   260  ILE260     -0.2867
     46  CB       -17.6020    5.5960  -22.5130 C.3   260  ILE260      0.0252
     47  CG1      -16.1040    5.4530  -22.7630 C.3   260  ILE260      0.0019
     48  CG2      -18.2180    4.2470  -22.1710 C.3   260  ILE260      0.0019
     49  CD1      -15.3060    5.2450  -21.5200 C.3   260  ILE260      0.0001
     50  N        -21.4040    3.8810  -26.8830 N.3   264  TRP264     -0.1241
     51  CA       -21.8460    2.5800  -26.3940 C.3   264  TRP264      0.1605
     52  C        -22.6440    1.8930  -27.4740 C.2   264  TRP264      0.2264
     53  O        -23.4150    2.5520  -28.1590 O.2   264  TRP264     -0.2867
     54  CB       -22.7240    2.7390  -25.1600 C.3   264  TRP264      0.0550
     55  CG       -22.8360    1.4930  -24.3110 C.ar  264  TRP264      0.0003
     56  CD1      -23.8080    0.5210  -24.3850 C.ar  264  TRP264      0.0946
     57  CD2      -21.9730    1.1010  -23.2450 C.ar  264  TRP264      0.0152
     58  NE1      -23.5890   -0.4500  -23.4370 N.ar  264  TRP264     -0.2442
     59  CE2      -22.4720   -0.1220  -22.7210 C.ar  264  TRP264      0.0810
     60  CE3      -20.8270    1.6570  -22.6640 C.ar  264  TRP264      0.0012
     61  CZ2      -21.8620   -0.7910  -21.6520 C.ar  264  TRP264      0.0191
     62  CZ3      -20.2190    0.9820  -21.6070 C.ar  264  TRP264      0.0001
     63  CH2      -20.7420   -0.2270  -21.1120 C.ar  264  TRP264      0.0015
     64  N        -26.8020   -3.1560  -25.8770 N.3   268  GLN268     -0.1231
     65  CA       -25.9790   -3.8900  -24.9180 C.3   268  GLN268      0.1683
     66  C        -26.0520   -3.1580  -23.5730 C.2   268  GLN268      0.2434
     67  O        -25.8370   -1.9500  -23.5270 O.2   268  GLN268     -0.2733
     68  CB       -24.5030   -4.0310  -25.3750 C.3   268  GLN268      0.0380
     69  CG       -24.2130   -5.1790  -26.4060 C.3   268  GLN268      0.0905
     70  CD       -24.6220   -6.6100  -25.9200 C.2   268  GLN268      0.2608
     71  OE1      -25.6130   -7.1840  -26.4140 O.2   268  GLN268     -0.2717
     72  NE2      -23.8630   -7.1700  -24.9650 N.am  268  GLN268     -0.0878
     73  N        -26.3450   -3.9010  -22.5020 N.am  269  PRO269     -0.2729
     74  CA       -26.6190   -3.3310  -21.1830 C.3   269  PRO269      0.1401
     75  C        -25.4080   -2.7360  -20.5070 C.2   269  PRO269      0.2269
     76  O        -24.3120   -3.2060  -20.7360 O.2   269  PRO269     -0.2865
     77  CB       -27.0710   -4.5480  -20.3850 C.3   269  PRO269      0.0296
     78  CG       -26.4370   -5.6890  -21.0630 C.3   269  PRO269      0.0237
     79  CD       -26.4510   -5.3730  -22.4980 C.3   269  PRO269      0.0939
     80  N        -23.8670   -2.7590  -16.8860 N.3   271  ILE271     -0.1245
     81  CA       -24.0280   -3.5330  -15.6650 C.3   271  ILE271      0.1561
     82  C        -22.8160   -3.2580  -14.8290 C.2   271  ILE271      0.2260
     83  O        -21.7470   -3.0210  -15.3670 O.2   271  ILE271     -0.2867
     84  CB       -24.2030   -5.0760  -15.9300 C.3   271  ILE271      0.0252
     85  CG1      -22.9350   -5.7060  -16.4950 C.3   271  ILE271      0.0019
     86  CG2      -25.3990   -5.3850  -16.8550 C.3   271  ILE271      0.0019
     87  CD1      -23.0440   -7.2340  -16.6370 C.3   271  ILE271      0.0001
@<TRIPOS>BOND
     1    53    52    2
     2    52    51    1
     3    50    51    1
     4    71    70    2
     5    69    70    1
     6    69    68    1
     7    51    54    1
     8    70    72   am
     9    64    65    1
    10    68    65    1
    11    54    55    1
    12    65    66    1
    13    45    44    2
    14    56    55   ar
    15    56    58   ar
    16    55    57   ar
    17    44    43    1
    18    42    43    1
    19    43    46    1
    20    66    67    2
    21    66    73   am
    22    58    59   ar
    23    57    59   ar
    24    57    60   ar
    25    47    46    1
    26    47    49    1
    27    59    61   ar
    28    60    62   ar
    29    46    48    1
    30    73    79    1
    31    73    74    1
    32    79    78    1
    33    61    63   ar
    34    62    63   ar
    35    74    75    1
    36    74    77    1
    37    21    20    1
    38    78    77    1
    39    76    75    2
    40    22    20    1
    41    15    13    1
    42    20    17    1
    43    19    18    2
    44    13    14    1
    45    13    10    1
    46    17    18    1
    47    17    16    1
    48    40    39    1
    49    12    11    2
    50     8     6    1
    51    41    39    1
    52    32    31    1
    53    10    11    1
    54    10     9    1
    55    39    38    1
    56    38    35    1
    57     4     3    2
    58     6     5    1
    59     9     3   am
    60    28    29    1
    61    28    27    1
    62    31    33    1
    63    31    30    2
    64    80    81    1
    65    86    84    1
    66    29    30    1
    67     3     2    1
    68    87    85    1
    69    85    84    1
    70    37    36    2
    71     5     2    1
    72     5     7    1
    73    35    36    1
    74    35    34    1
    75    84    81    1
    76    27    24    1
    77     2     1    1
    78    81    82    1
    79    83    82    2
    80    26    25    2
    81    25    24    1
    82    24    23    1
