@<TRIPOS>MOLECULE
tmp/3c6cA00.pdb
 87 83 0 0 0
SMALL
GASTEIGER

@<TRIPOS>ATOM
      1  N         27.7740   37.9640   41.3170 N.3    11  THR11      -0.1203
      2  CA        26.6780   36.9680   41.2270 C.3    11  THR11       0.1994
      3  C         26.1130   36.4860   42.5700 C.2    11  THR11       0.2618
      4  O         24.9180   36.3110   42.7230 O.2    11  THR11      -0.2717
      5  CB        27.0880   35.7600   40.3070 C.3    11  THR11       0.1784
      6  OG1       25.9160   34.9950   39.9990 O.3    11  THR11      -0.2211
      7  CG2       28.1800   34.8540   40.9350 C.3    11  THR11       0.0376
      8  N         27.0000   36.2040   43.5120 N.am   12  GLY12      -0.1956
      9  CA        26.5980   35.7160   44.7980 C.3    12  GLY12       0.1869
     10  C         26.0380   34.3130   44.7460 C.2    12  GLY12       0.2309
     11  O         26.1980   33.5980   43.7760 O.2    12  GLY12      -0.2863
     12  N         22.6740   33.7960   46.4120 N.3    14  ALA14      -0.1231
     13  CA        21.2090   33.8710   46.5820 C.3    14  ALA14       0.1679
     14  C         20.5380   33.1400   45.4090 C.2    14  ALA14       0.2434
     15  O         21.0450   33.1120   44.3040 O.2    14  ALA14      -0.2733
     16  CB        20.7320   35.3240   46.6770 C.3    14  ALA14       0.0304
     17  N         19.3780   32.5310   45.6480 N.am   15  PRO15      -0.2729
     18  CA        18.6790   31.7960   44.5770 C.3    15  PRO15       0.1401
     19  C         18.5810   32.5250   43.2300 C.2    15  PRO15       0.2269
     20  O         18.2580   33.7150   43.1430 O.2    15  PRO15      -0.2865
     21  CB        17.2900   31.5670   45.1860 C.3    15  PRO15       0.0296
     22  CG        17.5670   31.4400   46.6680 C.3    15  PRO15       0.0237
     23  CD        18.6220   32.5130   46.9200 C.3    15  PRO15       0.0939
     24  N         28.5430   29.1670   41.1450 N.3    49  ARG49      -0.1245
     25  CA        27.2350   28.5380   41.1820 C.3    49  ARG49       0.1563
     26  C         27.2900   27.1750   40.5070 C.2    49  ARG49       0.2260
     27  O         28.1330   26.9150   39.6340 O.2    49  ARG49      -0.2867
     28  CB        26.2020   29.4320   40.4700 C.3    49  ARG49       0.0307
     29  CG        25.8310   30.7000   41.2250 C.3    49  ARG49       0.0489
     30  CD        24.8400   31.5740   40.4260 C.3    49  ARG49       0.2205
     31  NE        24.5080   32.7800   41.1800 N.pl3  49  ARG49      -0.0865
     32  CZ        23.4880   32.8960   42.0240 C.cat  49  ARG49       0.5346
     33  NH1       22.6740   31.8610   42.2550 N.pl3  49  ARG49       0.1354
     34  NH2       23.2870   34.0390   42.6670 N.pl3  49  ARG49       0.1354
     35  N         21.5660   46.2310   50.1780 N.3   222  ILE222     -0.1231
     36  CA        20.8700   45.2500   49.3490 C.3   222  ILE222      0.1692
     37  C         19.6510   45.8840   48.6780 C.2   222  ILE222      0.2592
     38  O         18.9920   46.7550   49.2500 O.2   222  ILE222     -0.2718
     39  CB        20.4010   44.0640   50.2460 C.3   222  ILE222      0.0266
     40  CG1       21.5810   43.4490   51.0220 C.3   222  ILE222      0.0019
     41  CG2       19.6730   43.0100   49.4250 C.3   222  ILE222      0.0020
     42  CD1       22.6710   42.9130   50.1350 C.3   222  ILE222      0.0001
     43  N         19.3680   45.4270   47.4710 N.am  223  GLY223     -0.1957
     44  CA        18.2000   45.8780   46.7270 C.3   223  GLY223      0.1869
     45  C         18.1350   47.3840   46.5630 C.2   223  GLY223      0.2309
     46  O         19.0710   48.0170   46.0830 O.2   223  GLY223     -0.2863
     47  N         25.2170   42.3720   41.1370 N.3   241  LEU241     -0.1231
     48  CA        24.0370   41.5080   41.0800 C.3   241  LEU241      0.1693
     49  C         23.9110   40.5690   42.2890 C.2   241  LEU241      0.2592
     50  O         22.8380   40.0180   42.5360 O.2   241  LEU241     -0.2718
     51  CB        24.0090   40.7110   39.7670 C.3   241  LEU241      0.0284
     52  CG        23.8700   41.5260   38.4850 C.3   241  LEU241      0.0019
     53  CD1       23.9370   40.5790   37.2800 C.3   241  LEU241      0.0001
     54  CD2       22.5720   42.3200   38.5130 C.3   241  LEU241      0.0001
     55  N         25.0170   40.3890   43.0200 N.am  242  GLU242     -0.1966
     56  CA        24.9900   39.6290   44.2670 C.3   242  GLU242      0.1733
     57  C         24.0080   40.2700   45.2500 C.2   242  GLU242      0.2616
     58  O         23.3410   39.5920   46.0400 O.2   242  GLU242     -0.2715
     59  CB        26.3910   39.5320   44.9040 C.3   242  GLU242      0.0429
     60  CG        26.3740   38.9260   46.2910 C.3   242  GLU242      0.1163
     61  CD        27.7440   38.4330   46.7340 C.2   242  GLU242      0.3649
     62  OE1       28.6590   38.2950   45.8960 O.co2 242  GLU242     -0.2457
     63  OE2       27.9020   38.1920   47.9380 O.co2 242  GLU242     -0.2457
     64  N         23.9050   41.5920   45.1720 N.am  243  ASP243     -0.1957
     65  CA        23.2080   42.4080   46.1790 C.3   243  ASP243      0.1840
     66  C         21.8840   43.0240   45.7130 C.2   243  ASP243      0.2622
     67  O         21.0550   43.3940   46.5250 O.2   243  ASP243     -0.2715
     68  CB        24.0970   43.5560   46.6640 C.3   243  ASP243      0.1450
     69  CG        25.3960   43.0920   47.2530 C.2   243  ASP243      0.3671
     70  OD1       25.4340   41.9790   47.8450 O.co2 243  ASP243     -0.2456
     71  OD2       26.3940   43.8590   47.1320 O.co2 243  ASP243     -0.2456
     72  N         21.7310   43.1320   44.4030 N.am  244  ASN244     -0.1958
     73  CA        20.6060   43.8050   43.7830 C.3   244  ASN244      0.1819
     74  C         20.5090   43.4480   42.3230 C.2   244  ASN244      0.2621
     75  O         21.4790   43.5960   41.5970 O.2   244  ASN244     -0.2715
     76  CB        20.7960   45.3280   43.8950 C.3   244  ASN244      0.1195
     77  CG        19.8190   46.0950   43.0290 C.2   244  ASN244      0.2630
     78  OD1       18.6130   45.8110   43.0270 O.2   244  ASN244     -0.2716
     79  ND2       20.3240   47.0680   42.3120 N.am  244  ASN244     -0.0877
     80  N         19.3340   42.9800   41.8940 N.am  245  LEU245     -0.1977
     81  CA        19.1350   42.6110   40.4890 C.3   245  LEU245      0.1596
     82  C         18.6770   43.7390   39.5520 C.2   245  LEU245      0.2287
     83  O         18.6890   43.5860   38.3260 O.2   245  LEU245     -0.2864
     84  CB        18.1220   41.4630   40.3960 C.3   245  LEU245      0.0297
     85  CG        18.4810   40.1450   41.0960 C.3   245  LEU245      0.0022
     86  CD1       17.4080   39.0970   40.7230 C.3   245  LEU245      0.0001
     87  CD2       19.8620   39.6310   40.7400 C.3   245  LEU245      0.0001
@<TRIPOS>BOND
     1    53    52    1
     2    83    82    2
     3    52    54    1
     4    52    51    1
     5    82    81    1
     6    27    26    2
     7    51    48    1
     8     6     5    1
     9     5     7    1
    10     5     2    1
    11    84    81    1
    12    84    85    1
    13    30    31    1
    14    30    29    1
    15    28    25    1
    16    28    29    1
    17    81    80    1
    18    26    25    1
    19    86    85    1
    20    87    85    1
    21    48    47    1
    22    48    49    1
    23    24    25    1
    24    31    32    2
    25     2     1    1
    26     2     3    1
    27    75    74    2
    28    80    74   am
    29    32    33    1
    30    32    34    1
    31    49    50    2
    32    49    55   am
    33    79    77   am
    34    74    73    1
    35     3     4    2
    36     3     8   am
    37    55    56    1
    38    78    77    2
    39    77    76    1
    40    20    19    2
    41    19    18    1
    42     8     9    1
    43    11    10    2
    44    73    76    1
    45    73    72    1
    46    56    59    1
    47    56    57    1
    48    15    14    2
    49    72    66   am
    50    18    21    1
    51    18    17    1
    52    10     9    1
    53    59    60    1
    54    64    57   am
    55    64    65    1
    56    21    22    1
    57    57    58    2
    58    14    17   am
    59    14    13    1
    60    17    23    1
    61    66    65    1
    62    66    67    2
    63    62    61   ar
    64    46    45    2
    65    65    68    1
    66    60    61    1
    67    12    13    1
    68    45    44    1
    69    13    16    1
    70    68    69    1
    71    22    23    1
    72    44    43    1
    73    61    63   ar
    74    71    69   ar
    75    69    70   ar
    76    43    37   am
    77    37    38    2
    78    37    36    1
    79    36    35    1
    80    36    39    1
    81    41    39    1
    82    42    40    1
    83    39    40    1
