@<TRIPOS>MOLECULE
tmp/3c6kD01.pdb
 172 163 0 0 0
SMALL
GASTEIGER

@<TRIPOS>ATOM
      1  N          5.7820   77.3280  -82.0060 N.3   137  GLN137     -0.1245
      2  CA         5.5470   75.9040  -81.8070 C.3   137  GLN137      0.1566
      3  C          4.1500   75.4940  -82.1870 C.2   137  GLN137      0.2260
      4  O          3.2580   76.3340  -82.2150 O.2   137  GLN137     -0.2867
      5  CB         5.8000   75.5630  -80.3100 C.3   137  GLN137      0.0367
      6  CG         4.7670   76.1170  -79.3270 C.3   137  GLN137      0.0905
      7  CD         5.3190   76.2950  -77.8950 C.2   137  GLN137      0.2608
      8  OE1        6.0150   75.4530  -77.3870 O.2   137  GLN137     -0.2717
      9  NE2        4.9640   77.3750  -77.2600 N.am  137  GLN137     -0.0878
     10  N         -2.6850   69.7570  -72.5960 N.3   151  LEU151     -0.1245
     11  CA        -1.8270   70.6300  -73.3950 C.3   151  LEU151      0.1561
     12  C         -0.6140   69.8470  -73.9260 C.2   151  LEU151      0.2260
     13  O          0.1580   69.3040  -73.1540 O.2   151  LEU151     -0.2867
     14  CB        -1.3480   71.8050  -72.5630 C.3   151  LEU151      0.0270
     15  CG        -0.4580   72.8430  -73.2550 C.3   151  LEU151      0.0019
     16  CD1       -1.2730   73.7540  -74.2150 C.3   151  LEU151      0.0001
     17  CD2        0.2350   73.6610  -72.2200 C.3   151  LEU151      0.0001
     18  N          2.6700   70.3590  -76.4760 N.3   153  LEU153     -0.1245
     19  CA         3.4850   71.3220  -77.2350 C.3   153  LEU153      0.1561
     20  C          4.5370   70.5680  -78.0360 C.2   153  LEU153      0.2260
     21  O          5.2760   69.7580  -77.4950 O.2   153  LEU153     -0.2867
     22  CB         4.0950   72.4000  -76.3260 C.3   153  LEU153      0.0270
     23  CG         3.1380   73.1060  -75.3370 C.3   153  LEU153      0.0019
     24  CD1        3.9040   74.1440  -74.5030 C.3   153  LEU153      0.0001
     25  CD2        2.0590   73.8430  -76.1370 C.3   153  LEU153      0.0001
     26  N          2.5340   68.3050  -72.0440 N.3   158  ASN158     -0.1240
     27  CA         3.1080   69.1830  -71.0300 C.3   158  ASN158      0.1653
     28  C          2.3210   69.1490  -69.7470 C.2   158  ASN158      0.2266
     29  O          2.9020   69.0300  -68.6800 O.2   158  ASN158     -0.2867
     30  CB         3.2520   70.6380  -71.5150 C.3   158  ASN158      0.1155
     31  CG         4.6040   70.9100  -72.1230 C.2   158  ASN158      0.2627
     32  OD1        4.9780   70.2870  -73.0860 O.2   158  ASN158     -0.2716
     33  ND2        5.3220   71.8420  -71.5670 N.am  158  ASN158     -0.0877
     34  N          8.4530   80.2890  -68.2950 N.3   187  GLY187     -0.1210
     35  CA         7.4960   79.5420  -69.0620 C.3   187  GLY187      0.1956
     36  C          6.2070   79.4740  -68.2930 C.2   187  GLY187      0.2612
     37  O          5.7050   80.4750  -67.8140 O.2   187  GLY187     -0.2717
     38  N          5.6910   78.2690  -68.1420 N.am  188  GLY188     -0.1942
     39  CA         4.4320   78.0740  -67.4030 C.3   188  GLY188      0.2014
     40  C          3.2030   78.7250  -68.0180 C.2   188  GLY188      0.2639
     41  O          2.3270   79.2190  -67.2970 O.2   188  GLY188     -0.2714
     42  N          3.1050   78.6790  -69.3420 N.am  189  GLY189     -0.1939
     43  CA         2.0120   79.3170  -70.0940 C.3   189  GLY189      0.2014
     44  C          0.6190   78.8340  -69.7810 C.2   189  GLY189      0.2638
     45  O         -0.3680   79.5210  -70.0780 O.2   189  GLY189     -0.2714
     46  N          0.5280   77.6420  -69.1810 N.am  190  ASP190     -0.1971
     47  CA        -0.7570   77.1180  -68.7040 C.3   190  ASP190      0.1709
     48  C         -1.3250   77.8820  -67.4740 C.2   190  ASP190      0.2293
     49  O         -2.5290   77.7620  -67.1950 O.2   190  ASP190     -0.2864
     50  CB        -0.6070   75.6480  -68.3560 C.3   190  ASP190      0.1436
     51  CG         0.4070   75.4470  -67.2510 C.2   190  ASP190      0.3671
     52  OD1        1.6180   75.3090  -67.5820 O.co2 190  ASP190     -0.2456
     53  OD2        0.0050   75.5230  -66.0670 O.co2 190  ASP190     -0.2456
     54  N          7.3300   84.6400  -67.0090 N.3   208  VAL208     -0.1231
     55  CA         7.9040   85.0430  -68.2860 C.3   208  VAL208      0.1692
     56  C          7.7180   83.9400  -69.3470 C.2   208  VAL208      0.2592
     57  O          8.4330   82.9170  -69.3440 O.2   208  VAL208     -0.2718
     58  CB         9.4180   85.4390  -68.1980 C.3   208  VAL208      0.0266
     59  CG1        9.8400   86.0460  -69.5360 C.3   208  VAL208      0.0020
     60  CG2        9.6590   86.3850  -67.0670 C.3   208  VAL208      0.0020
     61  N          6.7720   84.1880  -70.2490 N.am  209  GLU209     -0.1966
     62  CA         6.2220   83.1710  -71.1610 C.3   209  GLU209      0.1733
     63  C          6.3120   83.7630  -72.5360 C.2   209  GLU209      0.2616
     64  O          5.8200   84.8610  -72.7540 O.2   209  GLU209     -0.2715
     65  CB         4.7380   82.8970  -70.8180 C.3   209  GLU209      0.0429
     66  CG         3.9270   82.1410  -71.9360 C.3   209  GLU209      0.1163
     67  CD         4.5750   80.8160  -72.3850 C.2   209  GLU209      0.3649
     68  OE1        4.7850   79.9480  -71.5410 O.co2 209  GLU209     -0.2457
     69  OE2        4.8710   80.6220  -73.5890 O.co2 209  GLU209     -0.2457
     70  N          6.9590   83.0630  -73.4570 N.am  210  ILE210     -0.1963
     71  CA         7.2460   83.5830  -74.7960 C.3   210  ILE210      0.1727
     72  C          6.0390   83.5810  -75.7080 C.2   210  ILE210      0.2616
     73  O          6.0060   84.3290  -76.6840 O.2   210  ILE210     -0.2715
     74  CB         8.4320   82.7750  -75.4660 C.3   210  ILE210      0.0290
     75  CG1        9.0490   83.4680  -76.6780 C.3   210  ILE210      0.0022
     76  CG2        8.0400   81.3350  -75.7750 C.3   210  ILE210      0.0023
     77  CD1       10.3880   82.8220  -77.1320 C.3   210  ILE210      0.0001
     78  N          5.0530   82.7340  -75.4320 N.am  211  ASP211     -0.1971
     79  CA         4.0280   82.4170  -76.4360 C.3   211  ASP211      0.1709
     80  C          2.6160   82.8000  -76.0050 C.2   211  ASP211      0.2293
     81  O          1.9500   82.0550  -75.2740 O.2   211  ASP211     -0.2864
     82  CB         4.0740   80.9360  -76.8160 C.3   211  ASP211      0.1436
     83  CG         3.3240   80.6420  -78.1380 C.2   211  ASP211      0.3671
     84  OD1        2.5220   81.4870  -78.5510 O.co2 211  ASP211     -0.2456
     85  OD2        3.5080   79.5740  -78.7490 O.co2 211  ASP211     -0.2456
     86  N         -0.2220   80.1980  -76.3740 N.3   214  VAL214     -0.1245
     87  CA        -0.3150   79.1950  -75.2790 C.3   214  VAL214      0.1561
     88  C         -1.1510   79.7600  -74.1380 C.2   214  VAL214      0.2260
     89  O         -2.0410   79.0860  -73.6420 O.2   214  VAL214     -0.2867
     90  CB         1.0860   78.7150  -74.7880 C.3   214  VAL214      0.0252
     91  CG1        0.9550   77.7610  -73.5390 C.3   214  VAL214      0.0019
     92  CG2        1.7790   77.9890  -75.9080 C.3   214  VAL214      0.0019
     93  N          7.3590   87.4360  -73.3330 N.3   240  GLU240     -0.1231
     94  CA         8.6190   87.4810  -74.0660 C.3   240  GLU240      0.1699
     95  C          9.4880   86.2750  -73.7820 C.2   240  GLU240      0.2592
     96  O          9.2370   85.5280  -72.8310 O.2   240  GLU240     -0.2718
     97  CB         9.4150   88.7460  -73.7260 C.3   240  GLU240      0.0402
     98  CG         9.5050   89.0780  -72.2580 C.3   240  GLU240      0.1161
     99  CD         9.8220   90.5720  -72.0030 C.2   240  GLU240      0.3649
    100  OE1        9.0290   91.2550  -71.3120 O.co2 240  GLU240     -0.2457
    101  OE2       10.8740   91.0620  -72.4830 O.co2 240  GLU240     -0.2457
    102  N         10.5470   86.1220  -74.5890 N.am  241  ASP241     -0.1960
    103  CA        11.6470   85.1870  -74.3370 C.3   241  ASP241      0.1840
    104  C         12.2630   85.4180  -72.9510 C.2   241  ASP241      0.2622
    105  O         12.6650   86.5450  -72.5970 O.2   241  ASP241     -0.2715
    106  CB        12.7090   85.3620  -75.4470 C.3   241  ASP241      0.1450
    107  CG        13.7770   84.2700  -75.4690 C.2   241  ASP241      0.3671
    108  OD1       13.8860   83.4480  -74.5540 O.co2 241  ASP241     -0.2456
    109  OD2       14.5680   84.2570  -76.4180 O.co2 241  ASP241     -0.2456
    110  N         12.3700   84.3400  -72.1670 N.am  242  CYS242     -0.1954
    111  CA        12.9050   84.4750  -70.8200 C.3   242  CYS242      0.1843
    112  C         14.4220   84.6630  -70.7520 C.2   242  CYS242      0.2625
    113  O         14.9160   85.0900  -69.7370 O.2   242  CYS242     -0.2714
    114  CB        12.4740   83.3090  -69.9450 C.3   242  CYS242      0.0997
    115  SG        13.4040   81.8160  -70.1800 S.3   242  CYS242     -0.0797
    116  N         15.1580   84.3460  -71.8160 N.am  243  ILE243     -0.1977
    117  CA        16.6020   84.5040  -71.7880 C.3   243  ILE243      0.1596
    118  C         17.0710   85.9720  -71.6890 C.2   243  ILE243      0.2287
    119  O         17.8970   86.2740  -70.8460 O.2   243  ILE243     -0.2864
    120  CB        17.3010   83.8190  -72.9870 C.3   243  ILE243      0.0276
    121  CG1       17.1630   82.2850  -72.9110 C.3   243  ILE243      0.0022
    122  CG2       18.7730   84.1990  -73.0150 C.3   243  ILE243      0.0022
    123  CD1       17.9890   81.6210  -71.8190 C.3   243  ILE243      0.0001
    124  N          9.7250   76.2450  -65.5310 N.3   262  ASP262     -0.1225
    125  CA         8.6680   75.4430  -66.1200 C.3   262  ASP262      0.1805
    126  C          8.6190   75.5930  -67.6460 C.2   262  ASP262      0.2598
    127  O          7.5180   75.7270  -68.2320 O.2   262  ASP262     -0.2718
    128  CB         7.3180   75.8300  -65.5360 C.3   262  ASP262      0.1424
    129  CG         6.2080   74.8870  -65.9630 C.2   262  ASP262      0.3668
    130  OD1        6.5050   73.7030  -66.2730 O.co2 262  ASP262     -0.2456
    131  OD2        5.0390   75.3160  -66.0090 O.co2 262  ASP262     -0.2456
    132  N          9.7970   75.5530  -68.2630 N.am  263  LEU263     -0.1966
    133  CA         9.9270   75.6530  -69.7050 C.3   263  LEU263      0.1728
    134  C          9.6030   74.3660  -70.4040 C.2   263  LEU263      0.2616
    135  O          9.5070   73.3090  -69.7710 O.2   263  LEU263     -0.2715
    136  CB        11.3700   76.0910  -70.1070 C.3   263  LEU263      0.0311
    137  CG        11.8040   77.4760  -69.6050 C.3   263  LEU263      0.0022
    138  CD1       13.3440   77.5500  -69.6680 C.3   263  LEU263      0.0001
    139  CD2       11.1360   78.5800  -70.3890 C.3   263  LEU263      0.0001
    140  N          9.4440   74.4360  -71.7350 N.am  264  THR264     -0.1951
    141  CA         9.3700   73.2040  -72.5150 C.3   264  THR264      0.1897
    142  C         10.6670   72.3770  -72.3680 C.2   264  THR264      0.2313
    143  O         11.7330   72.9270  -72.0400 O.2   264  THR264     -0.2863
    144  CB         9.1130   73.4840  -74.0150 C.3   264  THR264      0.1794
    145  OG1        9.8140   74.6540  -74.3810 O.3   264  THR264     -0.2208
    146  CG2        7.6330   73.7860  -74.2520 C.3   264  THR264      0.0378
    147  N         13.8200   74.1660  -74.4770 N.3   267  PRO267     -0.2102
    148  CA        13.4380   75.5850  -74.4510 C.3   267  PRO267      0.1504
    149  C         13.4680   76.2260  -75.8320 C.2   267  PRO267      0.2575
    150  O         14.2160   75.7800  -76.7150 O.2   267  PRO267     -0.2718
    151  CB        14.4680   76.2140  -73.5080 C.3   267  PRO267      0.0282
    152  CG        14.7730   75.0660  -72.5470 C.3   267  PRO267      0.0208
    153  CD        14.9650   73.9270  -73.5660 C.3   267  PRO267      0.0893
    154  N         12.6130   77.2120  -76.0380 N.am  268  ILE268     -0.1980
    155  CA        12.4610   77.8380  -77.3440 C.3   268  ILE268      0.1595
    156  C         13.5270   78.9370  -77.4680 C.2   268  ILE268      0.2287
    157  O         13.8300   79.6700  -76.5100 O.2   268  ILE268     -0.2864
    158  CB        11.0050   78.3590  -77.5800 C.3   268  ILE268      0.0276
    159  CG1       10.0160   77.1930  -77.6280 C.3   268  ILE268      0.0022
    160  CG2       10.8570   79.1900  -78.9050 C.3   268  ILE268      0.0022
    161  CD1        8.6030   77.6040  -77.5090 C.3   268  ILE268      0.0001
    162  N         22.8210   75.1670  -73.6870 N.3   277  PHE277     -0.1241
    163  CA        21.6160   76.0160  -73.4620 C.3   277  PHE277      0.1605
    164  C         20.9330   75.7920  -72.0750 C.2   277  PHE277      0.2264
    165  O         20.6390   76.7580  -71.3600 O.2   277  PHE277     -0.2867
    166  CB        20.6320   75.8680  -74.6220 C.3   277  PHE277      0.0534
    167  CG        19.5590   76.9370  -74.6720 C.ar  277  PHE277     -0.0203
    168  CD1       19.8470   78.2670  -74.3660 C.ar  277  PHE277     -0.0042
    169  CD2       18.2640   76.6180  -75.1040 C.ar  277  PHE277     -0.0042
    170  CE1       18.8390   79.2350  -74.4220 C.ar  277  PHE277     -0.0003
    171  CE2       17.2740   77.5830  -75.2050 C.ar  277  PHE277     -0.0003
    172  CZ        17.5430   78.8740  -74.8550 C.ar  277  PHE277     -0.0000
@<TRIPOS>BOND
     1     4     3    2
     2     3     2    1
     3     1     2    1
     4     2     5    1
     5     5     6    1
     6     6     7    1
     7   160   158    1
     8    85    83   ar
     9    84    83   ar
    10    83    82    1
    11    20    21    2
    12    20    19    1
    13     7     8    2
    14     7     9   am
    15   159   158    1
    16   159   161    1
    17   158   155    1
    18   156   155    1
    19   156   157    2
    20   155   154    1
    21    19    18    1
    22    19    22    1
    23    77    75    1
    24    82    79    1
    25   150   149    2
    26    73    72    2
    27    75    74    1
    28    79    80    1
    29    79    78    1
    30   109   107   ar
    31    86    87    1
    32    22    23    1
    33    25    23    1
    34   154   149   am
    35    80    81    2
    36    92    90    1
    37   149   148    1
    38    76    74    1
    39    72    78   am
    40    72    71    1
    41   107   106    1
    42   107   108   ar
    43    74    71    1
    44   106   103    1
    45    23    24    1
    46    87    90    1
    47    87    88    1
    48   171   169   ar
    49   171   172   ar
    50   169   167   ar
    51   172   170   ar
    52    71    70    1
    53    90    91    1
    54   167   166    1
    55   167   168   ar
    56   166   163    1
    57   102   103    1
    58   102    95   am
    59   147   148    1
    60   147   153    1
    61   148   151    1
    62   170   168   ar
    63   145   144    1
    64   103   104    1
    65   146   144    1
    66    16    15    1
    67    88    89    2
    68    94    95    1
    69    94    97    1
    70    94    93    1
    71   144   141    1
    72    12    11    1
    73    12    13    2
    74    95    96    2
    75    97    98    1
    76   162   163    1
    77    69    67   ar
    78   153   152    1
    79   151   152    1
    80   163   164    1
    81    70    63   am
    82    11    10    1
    83    11    14    1
    84    15    14    1
    85    15    17    1
    86    32    31    2
    87   122   120    1
    88   120   121    1
    89   120   117    1
    90   104   105    2
    91   104   110   am
    92   121   123    1
    93    64    63    2
    94    63    62    1
    95   141   142    1
    96   141   140    1
    97   101    99   ar
    98    67    66    1
    99    67    68   ar
   100   142   143    2
   101    98    99    1
   102   110   111    1
   103    31    33   am
   104    31    30    1
   105   164   165    2
   106    26    27    1
   107    99   100   ar
   108    66    65    1
   109   116   117    1
   110   116   112   am
   111   117   118    1
   112   140   134   am
   113   118   119    2
   114    30    27    1
   115    62    65    1
   116    62    61    1
   117    27    28    1
   118   111   112    1
   119   111   114    1
   120   112   113    2
   121   134   135    2
   122   134   133    1
   123   139   137    1
   124    61    56   am
   125   115   114    1
   126   136   133    1
   127   136   137    1
   128    43    44    1
   129    43    42    1
   130    45    44    2
   131    44    46   am
   132    28    29    2
   133   133   132    1
   134   138   137    1
   135    59    58    1
   136    56    57    2
   137    56    55    1
   138    42    40   am
   139    46    47    1
   140    35    34    1
   141    35    36    1
   142    47    50    1
   143    47    48    1
   144    50    51    1
   145    36    38   am
   146    36    37    2
   147    55    58    1
   148    55    54    1
   149   132   126   am
   150   127   126    2
   151    58    60    1
   152    38    39    1
   153    40    39    1
   154    40    41    2
   155   126   125    1
   156    52    51   ar
   157    48    49    2
   158    51    53   ar
   159   130   129   ar
   160   125   128    1
   161   125   124    1
   162   131   129   ar
   163   129   128    1
