@<TRIPOS>MOLECULE
tmp/3c6kD00.pdb
 152 151 0 0 0
SMALL
GASTEIGER

@<TRIPOS>ATOM
      1  N          0.2650   59.1420  -78.2340 N.3   113  TRP113     -0.1228
      2  CA         1.2460   60.1370  -77.8000 C.3   113  TRP113      0.1722
      3  C          2.3920   59.4380  -77.0620 C.2   113  TRP113      0.2437
      4  O          2.4170   59.3760  -75.8000 O.2   113  TRP113     -0.2733
      5  CB         0.5540   61.2780  -76.9760 C.3   113  TRP113      0.0563
      6  CG        -0.3910   62.0010  -77.8720 C.ar  113  TRP113      0.0003
      7  CD1       -1.7740   61.9040  -77.9180 C.ar  113  TRP113      0.0946
      8  CD2       -0.0160   62.8570  -78.9570 C.ar  113  TRP113      0.0152
      9  NE1       -2.2570   62.6620  -78.9570 N.ar  113  TRP113     -0.2442
     10  CE2       -1.2090   63.2450  -79.6170 C.ar  113  TRP113      0.0810
     11  CE3        1.2100   63.3690  -79.4030 C.ar  113  TRP113      0.0012
     12  CZ2       -1.2160   64.1390  -80.7020 C.ar  113  TRP113      0.0191
     13  CZ3        1.2010   64.2300  -80.5530 C.ar  113  TRP113      0.0001
     14  CH2       -0.0060   64.5980  -81.1620 C.ar  113  TRP113      0.0015
     15  N          3.3400   58.8860  -77.8320 N.am  114  PRO114     -0.2718
     16  CA         4.3630   58.0570  -77.1840 C.3   114  PRO114      0.1535
     17  C          5.1120   58.7550  -76.0570 C.2   114  PRO114      0.2599
     18  O          5.2590   60.0060  -76.0290 O.2   114  PRO114     -0.2715
     19  CB         5.2860   57.6560  -78.3410 C.3   114  PRO114      0.0310
     20  CG         4.3340   57.6800  -79.5700 C.3   114  PRO114      0.0237
     21  CD         3.5180   58.9200  -79.3080 C.3   114  PRO114      0.0939
     22  N          5.5870   57.9410  -75.1210 N.am  115  THR115     -0.1937
     23  CA         6.3240   58.4500  -73.9920 C.3   115  THR115      0.2028
     24  C          7.7660   58.9030  -74.3080 C.2   115  THR115      0.2642
     25  O          8.3320   58.5960  -75.3910 O.2   115  THR115     -0.2714
     26  CB         6.3340   57.4530  -72.8670 C.3   115  THR115      0.1808
     27  OG1        7.0610   56.2920  -73.2910 O.3   115  THR115     -0.2208
     28  CG2        4.8780   57.1700  -72.4530 C.3   115  THR115      0.0379
     29  N          8.3260   59.6700  -73.3580 N.am  116  ALA116     -0.1977
     30  CA         9.6790   60.2680  -73.5340 C.3   116  ALA116      0.1597
     31  C         10.6800   59.1490  -73.7750 C.2   116  ALA116      0.2287
     32  O         11.7040   59.3190  -74.4540 O.2   116  ALA116     -0.2864
     33  CB        10.0750   61.0960  -72.2660 C.3   116  ALA116      0.0319
     34  N         -4.1440   57.3030  -75.5420 N.3   123  TYR123     -0.1241
     35  CA        -4.9500   58.0670  -74.6040 C.3   123  TYR123      0.1605
     36  C         -6.4290   57.9570  -74.8990 C.2   123  TYR123      0.2264
     37  O         -6.8260   57.7290  -76.0350 O.2   123  TYR123     -0.2867
     38  CB        -4.5700   59.5580  -74.6150 C.3   123  TYR123      0.0534
     39  CG        -3.2420   59.8790  -73.9270 C.ar  123  TYR123     -0.0201
     40  CD1       -3.1990   60.2680  -72.5930 C.ar  123  TYR123     -0.0009
     41  CD2       -2.0420   59.7600  -74.6090 C.ar  123  TYR123     -0.0009
     42  CE1       -1.9920   60.5520  -71.9530 C.ar  123  TYR123      0.0417
     43  CE2       -0.8300   60.0390  -73.9930 C.ar  123  TYR123      0.0417
     44  CZ        -0.7970   60.4320  -72.6460 C.ar  123  TYR123      0.1957
     45  OH         0.4350   60.7460  -72.0580 O.3   123  TYR123     -0.2866
     46  N          4.6750   66.8930  -77.4210 N.3   156  ASP156     -0.1225
     47  CA         5.1090   66.5140  -76.0300 C.3   156  ASP156      0.1805
     48  C          4.0170   66.9530  -75.0500 C.2   156  ASP156      0.2598
     49  O          3.7060   68.1470  -74.9150 O.2   156  ASP156     -0.2718
     50  CB         6.4530   67.2110  -75.7080 C.3   156  ASP156      0.1424
     51  CG         7.0840   66.7680  -74.3780 C.2   156  ASP156      0.3668
     52  OD1        6.4730   65.9470  -73.6700 O.co2 156  ASP156     -0.2456
     53  OD2        8.2090   67.2350  -74.0430 O.co2 156  ASP156     -0.2456
     54  N          3.4050   65.9830  -74.3980 N.am  157  VAL157     -0.1966
     55  CA         2.3900   66.2230  -73.3670 C.3   157  VAL157      0.1727
     56  C          3.0350   67.0800  -72.2710 C.2   157  VAL157      0.2616
     57  O          3.9990   66.6380  -71.6680 O.2   157  VAL157     -0.2715
     58  CB         1.9010   64.8820  -72.7660 C.3   157  VAL157      0.0290
     59  CG1        1.1690   65.0930  -71.3970 C.3   157  VAL157      0.0023
     60  CG2        1.0050   64.1180  -73.8040 C.3   157  VAL157      0.0023
     61  N          2.5340   68.3050  -72.0440 N.am  158  ASN158     -0.1972
     62  CA         3.1080   69.1830  -71.0300 C.3   158  ASN158      0.1688
     63  C          2.3210   69.1490  -69.7470 C.2   158  ASN158      0.2292
     64  O          2.9020   69.0300  -68.6800 O.2   158  ASN158     -0.2864
     65  CB         3.2520   70.6380  -71.5150 C.3   158  ASN158      0.1181
     66  CG         4.6040   70.9100  -72.1230 C.2   158  ASN158      0.2629
     67  OD1        4.9780   70.2870  -73.0860 O.2   158  ASN158     -0.2716
     68  ND2        5.3220   71.8420  -71.5670 N.am  158  ASN158     -0.0877
     69  N          1.8870   67.7160  -60.7650 N.3   166  TYR166     -0.1241
     70  CA         2.9980   68.3470  -61.4810 C.3   166  TYR166      0.1605
     71  C          3.2900   69.7220  -60.8410 C.2   166  TYR166      0.2264
     72  O          4.4390   70.0740  -60.4570 O.2   166  TYR166     -0.2867
     73  CB         2.7080   68.4610  -63.0080 C.3   166  TYR166      0.0534
     74  CG         3.8160   69.2050  -63.7750 C.ar  166  TYR166     -0.0201
     75  CD1        4.7700   68.5060  -64.5120 C.ar  166  TYR166     -0.0009
     76  CD2        3.9320   70.6060  -63.7120 C.ar  166  TYR166     -0.0009
     77  CE1        5.8410   69.2040  -65.1840 C.ar  166  TYR166      0.0417
     78  CE2        4.9670   71.2960  -64.3720 C.ar  166  TYR166      0.0417
     79  CZ         5.9210   70.5710  -65.1090 C.ar  166  TYR166      0.1957
     80  OH         6.9590   71.2200  -65.7710 O.3   166  TYR166     -0.2866
     81  N          9.7250   76.2450  -65.5310 N.3   262  ASP262     -0.1225
     82  CA         8.6680   75.4430  -66.1200 C.3   262  ASP262      0.1805
     83  C          8.6190   75.5930  -67.6460 C.2   262  ASP262      0.2598
     84  O          7.5180   75.7270  -68.2320 O.2   262  ASP262     -0.2718
     85  CB         7.3180   75.8300  -65.5360 C.3   262  ASP262      0.1424
     86  CG         6.2080   74.8870  -65.9630 C.2   262  ASP262      0.3668
     87  OD1        6.5050   73.7030  -66.2730 O.co2 262  ASP262     -0.2456
     88  OD2        5.0390   75.3160  -66.0090 O.co2 262  ASP262     -0.2456
     89  N          9.7970   75.5530  -68.2630 N.am  263  LEU263     -0.1966
     90  CA         9.9270   75.6530  -69.7050 C.3   263  LEU263      0.1728
     91  C          9.6030   74.3660  -70.4040 C.2   263  LEU263      0.2617
     92  O          9.5070   73.3090  -69.7710 O.2   263  LEU263     -0.2715
     93  CB        11.3700   76.0910  -70.1070 C.3   263  LEU263      0.0311
     94  CG        11.8040   77.4760  -69.6050 C.3   263  LEU263      0.0022
     95  CD1       13.3440   77.5500  -69.6680 C.3   263  LEU263      0.0001
     96  CD2       11.1360   78.5800  -70.3890 C.3   263  LEU263      0.0001
     97  N          9.4440   74.4360  -71.7350 N.am  264  THR264     -0.1937
     98  CA         9.3700   73.2040  -72.5150 C.3   264  THR264      0.2028
     99  C         10.6670   72.3770  -72.3680 C.2   264  THR264      0.2642
    100  O         11.7330   72.9270  -72.0400 O.2   264  THR264     -0.2714
    101  CB         9.1130   73.4840  -74.0150 C.3   264  THR264      0.1808
    102  OG1        9.8140   74.6540  -74.3810 O.3   264  THR264     -0.2208
    103  CG2        7.6330   73.7860  -74.2520 C.3   264  THR264      0.0379
    104  N         10.5850   71.0690  -72.6420 N.am  265  ALA265     -0.1977
    105  CA        11.7390   70.1510  -72.4970 C.3   265  ALA265      0.1597
    106  C         12.9210   70.6600  -73.2690 C.2   265  ALA265      0.2287
    107  O         14.0400   70.6550  -72.7640 O.2   265  ALA265     -0.2864
    108  CB        11.3790   68.7480  -72.9560 C.3   265  ALA265      0.0319
    109  N         11.2650   70.7270  -63.6680 N.3   298  GLN298     -0.1245
    110  CA        10.9850   69.3530  -64.0940 C.3   298  GLN298      0.1566
    111  C         12.2670   68.8380  -64.7980 C.2   298  GLN298      0.2260
    112  O         12.9560   69.5970  -65.5070 O.2   298  GLN298     -0.2867
    113  CB         9.7460   69.2900  -64.9950 C.3   298  GLN298      0.0367
    114  CG         9.8660   70.1070  -66.3260 C.3   298  GLN298      0.0905
    115  CD        10.5490   69.3510  -67.4380 C.2   298  GLN298      0.2608
    116  OE1       11.1910   69.9550  -68.3370 O.2   298  GLN298     -0.2717
    117  NE2       10.4560   68.0440  -67.3950 N.am  298  GLN298     -0.0878
    118  N          0.9540   61.7140  -67.6210 N.3   334  TYR334     -0.1241
    119  CA         2.2730   61.5110  -68.2300 C.3   334  TYR334      0.1605
    120  C          2.4860   60.0700  -68.6700 C.2   334  TYR334      0.2264
    121  O          3.1430   59.8400  -69.6000 O.2   334  TYR334     -0.2867
    122  CB         3.3740   61.9220  -67.2620 C.3   334  TYR334      0.0534
    123  CG         3.7080   63.3950  -67.3000 C.ar  334  TYR334     -0.0201
    124  CD1        4.8960   63.8460  -66.8000 C.ar  334  TYR334     -0.0009
    125  CD2        2.8100   64.3190  -67.8400 C.ar  334  TYR334     -0.0009
    126  CE1        5.2020   65.1960  -66.7860 C.ar  334  TYR334      0.0417
    127  CE2        3.1020   65.6800  -67.8720 C.ar  334  TYR334      0.0417
    128  CZ         4.3240   66.1090  -67.3520 C.ar  334  TYR334      0.1957
    129  OH         4.6500   67.4550  -67.4060 O.3   334  TYR334     -0.2866
    130  N          4.2370   57.8490  -67.3720 N.3   336  GLU336     -0.1245
    131  CA         5.6070   57.4920  -67.0240 C.3   336  GLU336      0.1567
    132  C          5.9620   58.3100  -65.7920 C.2   336  GLU336      0.2260
    133  O          5.4710   59.4440  -65.6130 O.2   336  GLU336     -0.2867
    134  CB         6.6070   57.7580  -68.1460 C.3   336  GLU336      0.0388
    135  CG         6.6240   59.1600  -68.7420 C.3   336  GLU336      0.1160
    136  CD         7.4180   59.2270  -70.0600 C.2   336  GLU336      0.3649
    137  OE1        8.4260   58.4770  -70.2220 O.co2 336  GLU336     -0.2457
    138  OE2        7.0600   60.0610  -70.9350 O.co2 336  GLU336     -0.2457
    139  N          8.2100   60.6360  -63.3880 N.3   338  TRP338     -0.1241
    140  CA         8.9740   61.8330  -63.7570 C.3   338  TRP338      0.1605
    141  C          9.8900   62.2990  -62.6310 C.2   338  TRP338      0.2264
    142  O          9.5070   62.2070  -61.4640 O.2   338  TRP338     -0.2867
    143  CB         7.9960   62.9650  -64.1230 C.3   338  TRP338      0.0550
    144  CG         8.5400   63.8530  -65.1450 C.ar  338  TRP338      0.0003
    145  CD1        9.0420   65.0990  -64.9510 C.ar  338  TRP338      0.0946
    146  CD2        8.7200   63.5540  -66.5560 C.ar  338  TRP338      0.0152
    147  NE1        9.5110   65.5910  -66.1360 N.ar  338  TRP338     -0.2442
    148  CE2        9.3020   64.6870  -67.1410 C.ar  338  TRP338      0.0810
    149  CE3        8.4410   62.4430  -67.3620 C.ar  338  TRP338      0.0012
    150  CZ2        9.5880   64.7680  -68.5230 C.ar  338  TRP338      0.0191
    151  CZ3        8.7070   62.5250  -68.7290 C.ar  338  TRP338      0.0001
    152  CH2        9.2960   63.6680  -69.2840 C.ar  338  TRP338      0.0015
@<TRIPOS>BOND
     1    14    12   ar
     2    14    13   ar
     3    12    10   ar
     4    13    11   ar
     5    10     8   ar
     6    10     9   ar
     7    20    21    1
     8    20    19    1
     9    11     8   ar
    10    21    15    1
    11     8     6   ar
    12     9     7   ar
    13    19    16    1
    14     1     2    1
    15     7     6   ar
    16     6     5    1
    17    15    16    1
    18    15     3   am
    19     2     3    1
    20     2     5    1
    21    46    47    1
    22    16    17    1
    23     3     4    2
    24    17    18    2
    25    17    22   am
    26    37    36    2
    27    47    50    1
    28    47    48    1
    29    50    51    1
    30    34    35    1
    31    25    24    2
    32    22    23    1
    33    48    49    2
    34    48    54   am
    35    36    35    1
    36    38    35    1
    37    38    39    1
    38    41    43   ar
    39    41    39   ar
    40    32    31    2
    41    54    55    1
    42   102   101    1
    43    51    53   ar
    44    51    52   ar
    45    24    23    1
    46    24    29   am
    47   103   101    1
    48   101    98    1
    49    43    44   ar
    50    23    26    1
    51    39    40   ar
    52    60    58    1
    53    31    30    1
    54    30    29    1
    55    30    33    1
    56    55    58    1
    57    55    56    1
    58    27    26    1
    59   106   107    2
    60   106   105    1
    61    67    66    2
    62   108   105    1
    63    26    28    1
    64    58    59    1
    65    44    45    1
    66    44    42   ar
    67   104   105    1
    68   104    99   am
    69    40    42   ar
    70    98    99    1
    71    98    97    1
    72    99   100    2
    73    56    61   am
    74    56    57    2
    75    66    68   am
    76    66    65    1
    77    61    62    1
    78    97    91   am
    79    65    62    1
    80    62    63    1
    81   138   136   ar
    82    91    92    2
    83    91    90    1
    84    96    94    1
    85   137   136   ar
    86    93    90    1
    87    93    94    1
    88   136   135    1
    89    63    64    2
    90    90    89    1
    91    95    94    1
    92   121   120    2
    93   152   151   ar
    94   152   150   ar
    95   135   134    1
    96   151   149   ar
    97   120   119    1
    98   150   148   ar
    99   116   115    2
   100    89    83   am
   101    84    83    2
   102   119   118    1
   103   119   122    1
   104   134   131    1
   105   127   125   ar
   106   127   128   ar
   107   125   123   ar
   108    83    82    1
   109   115   117   am
   110   115   114    1
   111   129   128    1
   112   130   131    1
   113   149   146   ar
   114   128   126   ar
   115   123   122    1
   116   123   124   ar
   117   148   146   ar
   118   148   147   ar
   119   131   132    1
   120   124   126   ar
   121   146   144   ar
   122   114   113    1
   123    87    86   ar
   124   147   145   ar
   125    82    85    1
   126    82    81    1
   127    88    86   ar
   128    86    85    1
   129   132   133    2
   130    80    79    1
   131   112   111    2
   132    77    79   ar
   133    77    75   ar
   134   144   145   ar
   135   144   143    1
   136    79    78   ar
   137   113   110    1
   138   111   110    1
   139    75    74   ar
   140    78    76   ar
   141   143   140    1
   142   110   109    1
   143    74    76   ar
   144    74    73    1
   145   140   139    1
   146   140   141    1
   147    73    70    1
   148   141   142    2
   149    70    71    1
   150    70    69    1
   151    71    72    2
