@<TRIPOS>MOLECULE
tmp/3c6mB00.pdb
 187 183 0 0 0
SMALL
GASTEIGER

@<TRIPOS>ATOM
      1  N         53.3290  -12.2530   17.7310 N.3   105  TRP105     -0.1228
      2  CA        53.2520  -13.5210   18.4420 C.3   105  TRP105      0.1722
      3  C         53.4490  -14.7030   17.5230 C.2   105  TRP105      0.2437
      4  O         52.4640  -15.2280   16.9830 O.2   105  TRP105     -0.2733
      5  CB        51.9200  -13.6080   19.1720 C.3   105  TRP105      0.0563
      6  CG        51.8650  -12.5220   20.1220 C.ar  105  TRP105      0.0003
      7  CD1       51.1810  -11.3480   19.9880 C.ar  105  TRP105      0.0946
      8  CD2       52.6410  -12.4150   21.3160 C.ar  105  TRP105      0.0152
      9  NE1       51.4580  -10.5340   21.0460 N.ar  105  TRP105     -0.2442
     10  CE2       52.3330  -11.1650   21.8930 C.ar  105  TRP105      0.0810
     11  CE3       53.5570  -13.2660   21.9650 C.ar  105  TRP105      0.0012
     12  CZ2       52.9010  -10.7290   23.1040 C.ar  105  TRP105      0.0191
     13  CZ3       54.1220  -12.8480   23.1720 C.ar  105  TRP105      0.0001
     14  CH2       53.8040  -11.5720   23.7250 C.ar  105  TRP105      0.0015
     15  N         54.7180  -15.1040   17.3020 N.am  106  PRO106     -0.2718
     16  CA        54.9870  -16.2160   16.3760 C.3   106  PRO106      0.1535
     17  C         54.1420  -17.4700   16.6700 C.2   106  PRO106      0.2599
     18  O         53.8730  -17.7850   17.8340 O.2   106  PRO106     -0.2715
     19  CB        56.4930  -16.4780   16.5540 C.3   106  PRO106      0.0310
     20  CG        57.0540  -15.1500   16.9710 C.3   106  PRO106      0.0237
     21  CD        55.9700  -14.5210   17.8330 C.3   106  PRO106      0.0939
     22  N         53.7060  -18.1320   15.5940 N.am  107  THR107     -0.1937
     23  CA        52.9610  -19.3920   15.6260 C.3   107  THR107      0.2028
     24  C         53.8340  -20.4820   16.2510 C.2   107  THR107      0.2642
     25  O         55.0520  -20.3280   16.3020 O.2   107  THR107     -0.2714
     26  CB        52.6190  -19.8130   14.1880 C.3   107  THR107      0.1808
     27  OG1       53.8240  -19.8480   13.4140 O.3   107  THR107     -0.2208
     28  CG2       51.6410  -18.8160   13.5180 C.3   107  THR107      0.0379
     29  N         53.2470  -21.5800   16.7280 N.am  108  ALA108     -0.1977
     30  CA        54.0740  -22.7110   17.2010 C.3   108  ALA108      0.1597
     31  C         55.0830  -23.2360   16.1520 C.2   108  ALA108      0.2287
     32  O         56.1250  -23.7500   16.5100 O.2   108  ALA108     -0.2864
     33  CB        53.2130  -23.8400   17.6990 C.3   108  ALA108      0.0319
     34  N         49.6570   -9.4740   14.9340 N.3   115  TYR115     -0.1241
     35  CA        48.2340   -9.4550   15.3060 C.3   115  TYR115      0.1605
     36  C         47.6550   -8.0260   15.3520 C.2   115  TYR115      0.2264
     37  O         48.3900   -7.0490   15.5570 O.2   115  TYR115     -0.2867
     38  CB        48.0290  -10.1450   16.6530 C.3   115  TYR115      0.0534
     39  CG        47.9980  -11.6700   16.6140 C.ar  115  TYR115     -0.0201
     40  CD1       46.7760  -12.3570   16.5460 C.ar  115  TYR115     -0.0009
     41  CD2       49.1750  -12.4210   16.6860 C.ar  115  TYR115     -0.0009
     42  CE1       46.7160  -13.7360   16.5270 C.ar  115  TYR115      0.0417
     43  CE2       49.1180  -13.8210   16.6710 C.ar  115  TYR115      0.0417
     44  CZ        47.8770  -14.4570   16.5890 C.ar  115  TYR115      0.1957
     45  OH        47.7900  -15.8180   16.5660 O.3   115  TYR115     -0.2866
     46  N         52.4460  -17.9600   24.4550 N.3   148  ASP148     -0.1225
     47  CA        51.7970  -18.8800   23.5730 C.3   148  ASP148      0.1805
     48  C         50.3400  -18.4720   23.5680 C.2   148  ASP148      0.2598
     49  O         49.7320  -18.3970   24.6390 O.2   148  ASP148     -0.2718
     50  CB        52.0080  -20.2780   24.1390 C.3   148  ASP148      0.1424
     51  CG        51.3380  -21.3780   23.3380 C.2   148  ASP148      0.3668
     52  OD1       50.5720  -21.1140   22.3950 O.co2 148  ASP148     -0.2456
     53  OD2       51.5710  -22.5530   23.6850 O.co2 148  ASP148     -0.2456
     54  N         49.7750  -18.1960   22.3800 N.am  149  VAL149     -0.1966
     55  CA        48.3530  -17.8450   22.2420 C.3   149  VAL149      0.1727
     56  C         47.5060  -19.0490   22.6590 C.2   149  VAL149      0.2616
     57  O         47.6590  -20.1160   22.0680 O.2   149  VAL149     -0.2715
     58  CB        48.0150  -17.4410   20.7670 C.3   149  VAL149      0.0290
     59  CG1       46.5300  -17.5220   20.4870 C.3   149  VAL149      0.0023
     60  CG2       48.5900  -16.0630   20.4130 C.3   149  VAL149      0.0023
     61  N         46.6320  -18.9020   23.6570 N.am  150  ASN150     -0.1958
     62  CA        45.7720  -20.0160   24.1280 C.3   150  ASN150      0.1819
     63  C         44.3270  -19.9560   23.5920 C.2   150  ASN150      0.2621
     64  O         43.7560  -20.9600   23.1270 O.2   150  ASN150     -0.2715
     65  CB        45.7600  -20.0870   25.6810 C.3   150  ASN150      0.1195
     66  CG        46.8750  -20.9880   26.2540 C.2   150  ASN150      0.2630
     67  OD1       48.0420  -20.8850   25.8750 O.2   150  ASN150     -0.2716
     68  ND2       46.5040  -21.8890   27.1390 N.am  150  ASN150     -0.0877
     69  N         43.7230  -18.7720   23.6570 N.am  151  LEU151     -0.1977
     70  CA        42.3580  -18.6110   23.1870 C.3   151  LEU151      0.1596
     71  C         41.9790  -17.1540   23.1030 C.2   151  LEU151      0.2287
     72  O         42.3160  -16.3610   23.9820 O.2   151  LEU151     -0.2864
     73  CB        41.3760  -19.3290   24.1210 C.3   151  LEU151      0.0297
     74  CG        40.0250  -19.7590   23.5370 C.3   151  LEU151      0.0022
     75  CD1       40.1750  -20.9660   22.6300 C.3   151  LEU151      0.0001
     76  CD2       39.0150  -20.0350   24.6600 C.3   151  LEU151      0.0001
     77  N         37.7920  -24.0470   18.6830 N.3   158  TYR158     -0.1227
     78  CA        38.6740  -24.8210   19.5420 C.3   158  TYR158      0.1736
     79  C         37.8590  -25.6230   20.5620 C.2   158  TYR158      0.2596
     80  O         38.0010  -26.8380   20.6250 O.2   158  TYR158     -0.2718
     81  CB        39.6710  -23.9020   20.2350 C.3   158  TYR158      0.0548
     82  CG        40.5570  -24.6100   21.2240 C.ar  158  TYR158     -0.0200
     83  CD1       41.9300  -24.7730   20.9790 C.ar  158  TYR158     -0.0009
     84  CD2       40.0300  -25.1090   22.4170 C.ar  158  TYR158     -0.0009
     85  CE1       42.7420  -25.4130   21.9090 C.ar  158  TYR158      0.0417
     86  CE2       40.8360  -25.7600   23.3470 C.ar  158  TYR158      0.0417
     87  CZ        42.1760  -25.9000   23.0930 C.ar  158  TYR158      0.1957
     88  OH        42.9280  -26.5420   24.0200 O.3   158  TYR158     -0.2866
     89  N         36.9960  -24.9250   21.3260 N.am  159  THR159     -0.1953
     90  CA        36.0960  -25.5330   22.3070 C.3   159  THR159      0.1897
     91  C         35.2260  -26.6180   21.6650 C.2   159  THR159      0.2313
     92  O         35.1160  -27.7230   22.2170 O.2   159  THR159     -0.2863
     93  CB        35.1960  -24.4770   23.0030 C.3   159  THR159      0.1794
     94  OG1       35.9930  -23.4030   23.5090 O.3   159  THR159     -0.2208
     95  CG2       34.4270  -25.0900   24.1690 C.3   159  THR159      0.0378
     96  N         42.0190  -25.3440   31.5920 N.3   180  GLY180     -0.1225
     97  CA        40.7840  -24.7900   31.0280 C.3   180  GLY180      0.1811
     98  C         40.2830  -23.5530   31.7260 C.2   180  GLY180      0.2280
     99  O         39.0830  -23.2920   31.7580 O.2   180  GLY180     -0.2866
    100  N         40.3560  -20.4900   30.9720 N.3   182  ASP182     -0.1239
    101  CA        39.6260  -19.5030   30.1590 C.3   182  ASP182      0.1674
    102  C         38.0940  -19.6570   30.2670 C.2   182  ASP182      0.2266
    103  O         37.3490  -18.7470   29.8980 O.2   182  ASP182     -0.2867
    104  CB        40.0880  -19.5220   28.6890 C.3   182  ASP182      0.1410
    105  CG        40.0120  -20.8970   28.0570 C.2   182  ASP182      0.3668
    106  OD1       41.0650  -21.3880   27.6150 O.co2 182  ASP182     -0.2456
    107  OD2       38.9160  -21.4910   27.9660 O.co2 182  ASP182     -0.2456
    108  N         35.4080  -24.2430   27.6050 N.3   185  ILE185     -0.1245
    109  CA        34.6750  -25.5130   27.6940 C.3   185  ILE185      0.1561
    110  C         33.6410  -25.5630   28.8210 C.2   185  ILE185      0.2260
    111  O         32.5350  -26.0530   28.6150 O.2   185  ILE185     -0.2867
    112  CB        35.6160  -26.7130   27.8850 C.3   185  ILE185      0.0252
    113  CG1       36.7370  -26.7170   26.8270 C.3   185  ILE185      0.0019
    114  CG2       34.8020  -28.0280   27.9550 C.3   185  ILE185      0.0019
    115  CD1       38.0310  -27.3750   27.3240 C.3   185  ILE185      0.0001
    116  N         42.6200  -29.8590   28.8230 N.3   257  ASP257     -0.1225
    117  CA        42.7790  -28.5440   28.2190 C.3   257  ASP257      0.1805
    118  C         43.9170  -27.7640   28.8900 C.2   257  ASP257      0.2598
    119  O         43.7970  -26.5730   29.1600 O.2   257  ASP257     -0.2718
    120  CB        41.4490  -27.7930   28.2360 C.3   257  ASP257      0.1424
    121  CG        41.4910  -26.5060   27.4550 C.2   257  ASP257      0.3668
    122  OD1       42.2320  -26.4050   26.4510 O.co2 257  ASP257     -0.2456
    123  OD2       40.7570  -25.5920   27.8470 O.co2 257  ASP257     -0.2456
    124  N         45.0350  -28.4410   29.1350 N.am  258  LEU258     -0.1966
    125  CA        46.1820  -27.7920   29.7780 C.3   258  LEU258      0.1728
    126  C         46.8740  -26.9260   28.7620 C.2   258  LEU258      0.2617
    127  O         46.4860  -26.9240   27.6010 O.2   258  LEU258     -0.2715
    128  CB        47.1480  -28.8300   30.3530 C.3   258  LEU258      0.0311
    129  CG        46.5140  -29.7190   31.4190 C.3   258  LEU258      0.0022
    130  CD1       47.3490  -30.9830   31.6410 C.3   258  LEU258      0.0001
    131  CD2       46.2850  -28.9610   32.7320 C.3   258  LEU258      0.0001
    132  N         47.8590  -26.1560   29.1970 N.am  259  THR259     -0.1937
    133  CA        48.7450  -25.4310   28.2750 C.3   259  THR259      0.2028
    134  C         49.6670  -26.4770   27.5710 C.2   259  THR259      0.2642
    135  O         49.7810  -27.6140   28.0430 O.2   259  THR259     -0.2714
    136  CB        49.6010  -24.4150   29.0600 C.3   259  THR259      0.1808
    137  OG1       50.1400  -25.0610   30.2170 O.3   259  THR259     -0.2208
    138  CG2       48.7600  -23.2190   29.5250 C.3   259  THR259      0.0379
    139  N         50.2910  -26.1050   26.4540 N.am  260  ALA260     -0.1977
    140  CA        51.1760  -27.0000   25.6630 C.3   260  ALA260      0.1597
    141  C         52.2640  -27.6490   26.5100 C.2   260  ALA260      0.2287
    142  O         52.5000  -28.8650   26.3890 O.2   260  ALA260     -0.2864
    143  CB        51.8160  -26.2450   24.4900 C.3   260  ALA260      0.0319
    144  N         44.0130  -31.1160   23.0560 N.3   292  GLN292     -0.1245
    145  CA        44.6170  -30.4010   21.9630 C.3   292  GLN292      0.1566
    146  C         45.9290  -31.0970   21.6510 C.2   292  GLN292      0.2260
    147  O         46.7180  -31.3950   22.5570 O.2   292  GLN292     -0.2867
    148  CB        44.8100  -28.9110   22.3150 C.3   292  GLN292      0.0367
    149  CG        45.7140  -28.6050   23.5100 C.3   292  GLN292      0.0905
    150  CD        47.1940  -28.5710   23.1270 C.2   292  GLN292      0.2608
    151  OE1       48.0660  -28.8560   23.9390 O.2   292  GLN292     -0.2717
    152  NE2       47.4750  -28.2630   21.8730 N.am  292  GLN292     -0.0878
    153  N         44.5380  -18.5180   15.7630 N.3   328  TYR328     -0.1241
    154  CA        45.7220  -19.3700   15.8800 C.3   328  TYR328      0.1605
    155  C         46.6630  -19.0840   14.7280 C.2   328  TYR328      0.2264
    156  O         47.8660  -19.0230   14.9340 O.2   328  TYR328     -0.2867
    157  CB        45.3490  -20.8520   15.9510 C.3   328  TYR328      0.0534
    158  CG        45.0490  -21.3690   17.3520 C.ar  328  TYR328     -0.0201
    159  CD1       44.8220  -20.4860   18.4240 C.ar  328  TYR328     -0.0009
    160  CD2       44.9790  -22.7410   17.6100 C.ar  328  TYR328     -0.0009
    161  CE1       44.5500  -20.9510   19.6920 C.ar  328  TYR328      0.0417
    162  CE2       44.6960  -23.2180   18.8800 C.ar  328  TYR328      0.0417
    163  CZ        44.4820  -22.3140   19.9240 C.ar  328  TYR328      0.1957
    164  OH        44.2190  -22.7740   21.2040 O.3   328  TYR328     -0.2866
    165  N         47.4010  -20.9710   12.3710 N.3   330  GLU330     -0.1245
    166  CA        47.9990  -22.2480   11.9730 C.3   330  GLU330      0.1567
    167  C         46.9220  -23.2590   12.2850 C.2   330  GLU330      0.2260
    168  O         46.2500  -23.1470   13.3080 O.2   330  GLU330     -0.2867
    169  CB        49.2650  -22.5500   12.7820 C.3   330  GLU330      0.0388
    170  CG        49.1680  -22.3530   14.3010 C.3   330  GLU330      0.1160
    171  CD        50.5080  -22.4940   14.9970 C.2   330  GLU330      0.3649
    172  OE1       51.3350  -23.2860   14.4970 O.co2 330  GLU330     -0.2457
    173  OE2       50.7510  -21.8180   16.0410 O.co2 330  GLU330     -0.2457
    174  N         45.2580  -26.6240   13.5750 N.3   332  TRP332     -0.1241
    175  CA        45.5740  -27.3370   14.8160 C.3   332  TRP332      0.1605
    176  C         45.0130  -28.7490   14.7520 C.2   332  TRP332      0.2264
    177  O         43.9310  -28.9650   14.1790 O.2   332  TRP332     -0.2867
    178  CB        44.9580  -26.6160   16.0230 C.3   332  TRP332      0.0550
    179  CG        45.7900  -26.7680   17.2640 C.ar  332  TRP332      0.0003
    180  CD1       45.5470  -27.6150   18.3150 C.ar  332  TRP332      0.0946
    181  CD2       47.0290  -26.1170   17.5560 C.ar  332  TRP332      0.0152
    182  NE1       46.5420  -27.5130   19.2430 N.ar  332  TRP332     -0.2442
    183  CE2       47.4640  -26.5970   18.8140 C.ar  332  TRP332      0.0810
    184  CE3       47.8100  -25.1660   16.8860 C.ar  332  TRP332      0.0012
    185  CZ2       48.6340  -26.1500   19.4290 C.ar  332  TRP332      0.0191
    186  CZ3       48.9950  -24.7260   17.5040 C.ar  332  TRP332      0.0001
    187  CH2       49.3910  -25.2260   18.7560 C.ar  332  TRP332      0.0015
@<TRIPOS>BOND
     1   166   167    1
     2   166   165    1
     3   166   169    1
     4   167   168    2
     5   169   170    1
     6    27    26    1
     7    28    26    1
     8   174   175    1
     9   177   176    2
    10    26    23    1
    11   170   171    1
    12   172   171   ar
    13   155   156    2
    14   155   154    1
    15   176   175    1
    16   175   178    1
    17    34    35    1
    18   171   173   ar
    19    35    36    1
    20    35    38    1
    21    36    37    2
    22    22    23    1
    23    22    17   am
    24    23    24    1
    25   153   154    1
    26   154   157    1
    27   157   158    1
    28   178   179    1
    29    31    32    2
    30    31    30    1
    31    24    25    2
    32    24    29   am
    33    16    19    1
    34    16    17    1
    35    16    15    1
    36    42    40   ar
    37    42    44   ar
    38    40    39   ar
    39    19    20    1
    40    45    44    1
    41    44    43   ar
    42    39    38    1
    43    39    41   ar
    44    17    18    2
    45    43    41   ar
    46    29    30    1
    47   184   186   ar
    48   184   181   ar
    49    20    21    1
    50     4     3    2
    51    30    33    1
    52   179   181   ar
    53   179   180   ar
    54    15     3   am
    55    15    21    1
    56   158   160   ar
    57   158   159   ar
    58   186   187   ar
    59     3     2    1
    60   181   183   ar
    61   160   162   ar
    62     1     2    1
    63   180   182   ar
    64   159   161   ar
    65     2     5    1
    66    77    78    1
    67   187   185   ar
    68   183   182   ar
    69   183   185   ar
    70   162   163   ar
    71     5     6    1
    72    78    81    1
    73    78    79    1
    74   161   163   ar
    75   163   164    1
    76     7     6   ar
    77     7     9   ar
    78     6     8   ar
    79    81    82    1
    80    60    58    1
    81    59    58    1
    82    79    80    2
    83    79    89   am
    84    58    55    1
    85    83    82   ar
    86    83    85   ar
    87     9    10   ar
    88    82    84   ar
    89     8    10   ar
    90     8    11   ar
    91    89    90    1
    92   146   145    1
    93   146   147    2
    94    91    92    2
    95    91    90    1
    96   152   150   am
    97    10    12   ar
    98    85    87   ar
    99   145   148    1
   100   145   144    1
   101    11    13   ar
   102    57    56    2
   103    55    54    1
   104    55    56    1
   105    90    93    1
   106   148   149    1
   107    54    48   am
   108    52    51   ar
   109    84    86   ar
   110    75    74    1
   111    56    61   am
   112    93    94    1
   113    93    95    1
   114    87    86   ar
   115    87    88    1
   116    71    70    1
   117    71    72    2
   118    12    14   ar
   119   150   149    1
   120   150   151    2
   121    64    63    2
   122    13    14   ar
   123    70    69    1
   124    70    73    1
   125    51    53   ar
   126    51    50    1
   127    74    73    1
   128    74    76    1
   129    48    47    1
   130    48    49    2
   131    47    50    1
   132    47    46    1
   133    63    69   am
   134    63    62    1
   135    61    62    1
   136    62    65    1
   137   143   140    1
   138   140   139    1
   139   140   141    1
   140    65    66    1
   141    67    66    2
   142    66    68   am
   143   142   141    2
   144   122   121   ar
   145   139   134   am
   146   113   115    1
   147   113   112    1
   148   121   123   ar
   149   121   120    1
   150   134   135    2
   151   134   133    1
   152   127   126    2
   153   108   109    1
   154   106   105   ar
   155   109   112    1
   156   109   110    1
   157   112   114    1
   158   107   105   ar
   159   105   104    1
   160   117   120    1
   161   117   116    1
   162   117   118    1
   163   133   136    1
   164   133   132    1
   165   111   110    2
   166   104   101    1
   167   126   132   am
   168   126   125    1
   169   118   124   am
   170   118   119    2
   171   136   138    1
   172   136   137    1
   173   124   125    1
   174   125   128    1
   175   103   102    2
   176   101   102    1
   177   101   100    1
   178   128   129    1
   179    97    96    1
   180    97    98    1
   181   129   130    1
   182   129   131    1
   183    98    99    2
