@<TRIPOS>MOLECULE
tmp/3c6nB01.pdb
 174 169 0 0 0
SMALL
GASTEIGER

@<TRIPOS>ATOM
      1  N          0.0230    7.5300   40.6880 N.3    69  HIS69      -0.1226
      2  CA        -0.3860    8.1710   39.4740 C.3    69  HIS69       0.1752
      3  C         -0.4690    9.7250   39.3650 C.2    69  HIS69       0.2596
      4  O          0.0700   10.3000   38.4070 O.2    69  HIS69      -0.2718
      5  CB        -1.6830    7.5930   39.0930 C.3    69  HIS69       0.0759
      6  CG        -2.2050    8.1660   37.8350 C.ar   69  HIS69       0.0818
      7  ND1       -3.5460    8.2570   37.5580 N.ar   69  HIS69      -0.2268
      8  CD2       -1.5630    8.7020   36.7710 C.ar   69  HIS69       0.1154
      9  CE1       -3.7160    8.8320   36.3810 C.ar   69  HIS69       0.1986
     10  NE2       -2.5240    9.1070   35.8810 N.ar   69  HIS69      -0.2212
     11  N         -1.1560   10.4330   40.2690 N.am   70  PHE70      -0.1976
     12  CA        -1.2850   11.9210   40.1780 C.3    70  PHE70       0.1639
     13  C          0.0720   12.6020   40.3690 C.2    70  PHE70       0.2290
     14  O          0.1230   13.8750   40.4370 O.2    70  PHE70      -0.2864
     15  CB        -2.1900   12.5040   41.2690 C.3    70  PHE70       0.0560
     16  CG        -3.7050   12.4860   40.9850 C.ar   70  PHE70      -0.0200
     17  CD1       -4.3050   11.5990   40.0340 C.ar   70  PHE70      -0.0042
     18  CD2       -4.5350   13.3670   41.7070 C.ar   70  PHE70      -0.0042
     19  CE1       -5.7410   11.5920   39.8140 C.ar   70  PHE70      -0.0003
     20  CE2       -5.9370   13.3930   41.5160 C.ar   70  PHE70      -0.0003
     21  CZ        -6.5580   12.4850   40.5760 C.ar   70  PHE70      -0.0000
     22  N          2.0940   12.2840   37.8720 N.3    72  ASP72      -0.1225
     23  CA         2.1110   12.8760   36.5340 C.3    72  ASP72       0.1805
     24  C          1.4210   14.1930   36.4520 C.2    72  ASP72       0.2598
     25  O          1.5690   14.8200   35.4270 O.2    72  ASP72      -0.2718
     26  CB         1.4530   12.0120   35.4580 C.3    72  ASP72       0.1424
     27  CG         2.0100   10.5790   35.4120 C.2    72  ASP72       0.3668
     28  OD1        3.0690   10.2140   36.0540 O.co2  72  ASP72      -0.2456
     29  OD2        1.3060    9.7770   34.7420 O.co2  72  ASP72      -0.2456
     30  N          0.6130   14.6040   37.4370 N.am   73  PHE73      -0.1962
     31  CA        -0.0960   15.9050   37.3190 C.3    73  PHE73       0.1771
     32  C          0.6010   16.9210   38.1640 C.2    73  PHE73       0.2619
     33  O          0.0520   17.9930   38.5410 O.2    73  PHE73      -0.2715
     34  CB        -1.5350   15.7890   37.6800 C.3    73  PHE73       0.0574
     35  CG        -2.2080   14.8260   36.8700 C.ar   73  PHE73      -0.0200
     36  CD1       -2.0340   14.8280   35.4930 C.ar   73  PHE73      -0.0042
     37  CD2       -2.9480   13.8260   37.4070 C.ar   73  PHE73      -0.0042
     38  CE1       -2.6550   13.8370   34.6530 C.ar   73  PHE73      -0.0003
     39  CE2       -3.5590   12.8390   36.5300 C.ar   73  PHE73      -0.0003
     40  CZ        -3.3950   12.8720   35.1550 C.ar   73  PHE73      -0.0000
     41  N          1.8390   16.5820   38.4830 N.am   74  ASN74      -0.1972
     42  CA         2.5800   17.4180   39.4190 C.3    74  ASN74       0.1688
     43  C          1.9620   17.6870   40.7910 C.2    74  ASN74       0.2292
     44  O          2.0650   18.8190   41.2800 O.2    74  ASN74      -0.2864
     45  CB         2.8460   18.7310   38.7500 C.3    74  ASN74       0.1181
     46  CG         4.1990   18.7680   38.2780 C.2    74  ASN74       0.2629
     47  OD1        4.6440   17.8560   37.5330 O.2    74  ASN74      -0.2716
     48  ND2        4.9610   19.7200   38.8130 N.am   74  ASN74      -0.0877
     49  N         -5.6480   13.0750   22.1850 N.3   337  PHE337     -0.1241
     50  CA        -5.0770   14.0060   23.0470 C.3   337  PHE337      0.1605
     51  C         -5.4900   15.4010   22.6510 C.2   337  PHE337      0.2264
     52  O         -6.1170   15.6290   21.6110 O.2   337  PHE337     -0.2867
     53  CB        -3.5930   13.7710   23.0290 C.3   337  PHE337      0.0534
     54  CG        -3.2180   12.5380   23.7090 C.ar  337  PHE337     -0.0203
     55  CD1       -2.9860   11.4080   23.0060 C.ar  337  PHE337     -0.0042
     56  CD2       -3.2100   12.4870   25.0960 C.ar  337  PHE337     -0.0042
     57  CE1       -2.6540   10.2210   23.6280 C.ar  337  PHE337     -0.0003
     58  CE2       -2.8800   11.3300   25.7700 C.ar  337  PHE337     -0.0003
     59  CZ        -2.5670   10.1780   25.0220 C.ar  337  PHE337     -0.0000
     60  N         -4.9010   25.2050   27.1630 N.3   342  PHE342     -0.1241
     61  CA        -5.0120   26.4610   27.9730 C.3   342  PHE342      0.1605
     62  C         -5.7260   27.6540   27.2570 C.2   342  PHE342      0.2264
     63  O         -5.9810   28.7280   27.8320 O.2   342  PHE342     -0.2867
     64  CB        -3.6560   26.8300   28.6180 C.3   342  PHE342      0.0534
     65  CG        -2.9310   25.6340   29.2510 C.ar  342  PHE342     -0.0203
     66  CD1       -1.5160   25.6140   29.3480 C.ar  342  PHE342     -0.0042
     67  CD2       -3.6560   24.5120   29.7410 C.ar  342  PHE342     -0.0042
     68  CE1       -0.8270   24.4910   29.9210 C.ar  342  PHE342     -0.0003
     69  CE2       -2.9950   23.3950   30.3100 C.ar  342  PHE342     -0.0003
     70  CZ        -1.5770   23.3810   30.3930 C.ar  342  PHE342     -0.0000
     71  N         -9.6850    7.0980   25.8860 N.3   369  LEU369     -0.1245
     72  CA        -9.1730    8.2220   26.5610 C.3   369  LEU369      0.1561
     73  C         -9.4640    9.3680   25.5850 C.2   369  LEU369      0.2260
     74  O         -9.0110    9.3380   24.5190 O.2   369  LEU369     -0.2867
     75  CB        -7.6710    8.0850   26.7790 C.3   369  LEU369      0.0270
     76  CG        -6.8430    9.3500   27.2460 C.3   369  LEU369      0.0019
     77  CD1       -7.3360   10.3040   28.3570 C.3   369  LEU369      0.0001
     78  CD2       -5.4710    8.9490   27.7640 C.3   369  LEU369      0.0001
     79  N        -10.1510   13.7190   24.9810 N.3   371  PHE371     -0.1241
     80  CA       -10.3060   15.0700   25.4480 C.3   371  PHE371      0.1605
     81  C        -11.1780   15.8400   24.4900 C.2   371  PHE371      0.2264
     82  O        -10.7030   16.1690   23.3990 O.2   371  PHE371     -0.2867
     83  CB        -8.9650   15.7420   25.4390 C.3   371  PHE371      0.0534
     84  CG        -8.0410   15.1930   26.4240 C.ar  371  PHE371     -0.0203
     85  CD1       -7.6130   13.8310   26.3250 C.ar  371  PHE371     -0.0042
     86  CD2       -7.5560   16.0160   27.5230 C.ar  371  PHE371     -0.0042
     87  CE1       -6.6450   13.2920   27.3000 C.ar  371  PHE371     -0.0003
     88  CE2       -6.6110   15.4570   28.5600 C.ar  371  PHE371     -0.0003
     89  CZ        -6.1450   14.1350   28.4290 C.ar  371  PHE371     -0.0000
     90  N        -11.9190    6.8240   30.0300 N.3   394  ARG394     -0.1231
     91  CA       -11.4860    7.9910   30.7200 C.3   394  ARG394      0.1694
     92  C        -12.0640    9.0650   29.8500 C.2   394  ARG394      0.2592
     93  O        -11.9470    8.9390   28.6260 O.2   394  ARG394     -0.2718
     94  CB        -9.9790    7.9850   30.7740 C.3   394  ARG394      0.0321
     95  CG        -9.5250    6.7510   31.5570 C.3   394  ARG394      0.0489
     96  CD        -8.1250    6.1910   31.1610 C.3   394  ARG394      0.2205
     97  NE        -7.0390    7.1540   31.4350 N.pl3 394  ARG394     -0.0865
     98  CZ        -5.7240    6.8920   31.3970 C.cat 394  ARG394      0.5346
     99  NH1       -5.2360    5.6750   31.0760 N.pl3 394  ARG394      0.1354
    100  NH2       -4.8580    7.8830   31.6850 N.pl3 394  ARG394      0.1354
    101  N        -12.7130   10.0900   30.3850 N.am  395  LEU395     -0.1966
    102  CA       -13.1710   11.1930   29.5810 C.3   395  LEU395      0.1728
    103  C        -12.7970   12.4120   30.2560 C.2   395  LEU395      0.2616
    104  O        -12.7010   12.3970   31.4490 O.2   395  LEU395     -0.2715
    105  CB       -14.6420   11.1800   29.4000 C.3   395  LEU395      0.0311
    106  CG       -15.3890   12.3480   28.7530 C.3   395  LEU395      0.0022
    107  CD1      -14.9080   12.7330   27.3400 C.3   395  LEU395      0.0001
    108  CD2      -16.7970   11.7490   28.7050 C.3   395  LEU395      0.0001
    109  N        -12.5070   13.4770   29.5280 N.am  396  CYS396     -0.1968
    110  CA       -11.8640   14.5450   30.1230 C.3   396  CYS396      0.1712
    111  C        -12.2860   15.7700   29.3840 C.2   396  CYS396      0.2296
    112  O        -11.7530   16.0010   28.3460 O.2   396  CYS396     -0.2864
    113  CB       -10.3570   14.3870   30.1160 C.3   396  CYS396      0.0983
    114  SG        -9.7000   16.1970   30.5990 S.3   396  CYS396     -0.0798
    115  N        -11.9740    0.4540   34.7370 N.3   427  ARG427     -0.1245
    116  CA       -11.2970    1.7030   34.9620 C.3   427  ARG427      0.1563
    117  C        -12.1230    2.8190   34.4170 C.2   427  ARG427      0.2260
    118  O        -12.7160    2.6900   33.3230 O.2   427  ARG427     -0.2867
    119  CB       -10.0950    1.7360   34.1120 C.3   427  ARG427      0.0307
    120  CG        -9.5280    3.1650   34.1060 C.3   427  ARG427      0.0489
    121  CD        -8.0520    3.0890   34.4510 C.3   427  ARG427      0.2205
    122  NE        -7.4780    4.4010   34.5420 N.pl3 427  ARG427     -0.0865
    123  CZ        -6.1610    4.6620   34.3570 C.cat 427  ARG427      0.5346
    124  NH1       -5.3210    3.6700   34.0410 N.pl3 427  ARG427      0.1354
    125  NH2       -5.6310    5.8970   34.4670 N.pl3 427  ARG427      0.1354
    126  N        -12.5930    7.2850   34.4210 N.3   429  SER429     -0.1202
    127  CA       -12.0760    8.4570   34.8030 C.3   429  SER429      0.2020
    128  C        -13.1240    9.5900   34.3840 C.2   429  SER429      0.2619
    129  O        -13.7840    9.5010   33.3810 O.2   429  SER429     -0.2717
    130  CB       -10.6470    8.5700   34.3400 C.3   429  SER429      0.2103
    131  OG       -10.5580    9.8130   33.6800 O.3   429  SER429     -0.2182
    132  N        -13.4150   10.5670   35.2830 N.am  430  LEU430     -0.1965
    133  CA       -14.6950   11.2940   35.1080 C.3   430  LEU430      0.1728
    134  C        -14.4260   12.7270   34.9010 C.2   430  LEU430      0.2616
    135  O        -13.3500   13.2400   35.1820 O.2   430  LEU430     -0.2715
    136  CB       -15.6630   11.3420   36.2850 C.3   430  LEU430      0.0311
    137  CG       -16.3500   10.1240   36.9180 C.3   430  LEU430      0.0022
    138  CD1      -16.9000   10.6390   38.2900 C.3   430  LEU430      0.0001
    139  CD2      -17.4530    9.5400   36.0110 C.3   430  LEU430      0.0001
    140  N        -15.4440   13.4080   34.4100 N.am  431  SER431     -0.1950
    141  CA       -15.3930   14.8660   34.3960 C.3   431  SER431      0.1924
    142  C        -16.7090   15.3390   33.9570 C.2   431  SER431      0.2314
    143  O        -17.7020   14.5670   33.7650 O.2   431  SER431     -0.2863
    144  CB       -14.4360   15.5960   33.3590 C.3   431  SER431      0.2116
    145  OG       -13.9590   14.6380   32.3770 O.3   431  SER431     -0.2180
    146  N        -11.0780    7.9040   38.8910 N.3   453  SER453     -0.1202
    147  CA       -10.3220    9.1690   39.0440 C.3   453  SER453      0.2020
    148  C        -11.3090   10.2350   38.8540 C.2   453  SER453      0.2619
    149  O        -12.2000   10.0690   38.0380 O.2   453  SER453     -0.2717
    150  CB        -9.2780    9.3690   37.9730 C.3   453  SER453      0.2103
    151  OG        -8.3540    8.3430   38.0780 O.3   453  SER453     -0.2182
    152  N        -11.1770   11.2830   39.6210 N.am  454  VAL454     -0.1965
    153  CA       -12.3000   12.1490   39.8810 C.3   454  VAL454      0.1727
    154  C        -11.6310   13.4700   40.1930 C.2   454  VAL454      0.2616
    155  O        -10.4510   13.4360   40.7890 O.2   454  VAL454     -0.2715
    156  CB       -13.0540   11.7390   41.1740 C.3   454  VAL454      0.0290
    157  CG1      -14.3750   12.3780   41.2400 C.3   454  VAL454      0.0023
    158  CG2      -13.2730   10.2810   41.1530 C.3   454  VAL454      0.0023
    159  N        -12.2580   14.5680   39.7060 N.am  455  ALA455     -0.1977
    160  CA       -11.7170   15.9030   39.9080 C.3   455  ALA455      0.1597
    161  C        -12.8650   16.8770   39.7560 C.2   455  ALA455      0.2287
    162  O        -13.7500   16.6100   38.9380 O.2   455  ALA455     -0.2864
    163  CB       -10.7100   16.2250   38.9760 C.3   455  ALA455      0.0319
    164  N         -9.3510   14.8790   43.4610 N.3   480  ARG480     -0.1301
    165  CA        -8.8200   16.1720   43.7460 C.3   480  ARG480      0.1248
    166  C         -9.9140   17.1600   43.5550 C.3   480  ARG480      0.2009
    167  O        -10.8700   16.9430   42.7120 O.3   480  ARG480     -0.2188
    168  CB        -7.5590   16.5240   42.9360 C.3   480  ARG480      0.0254
    169  CG        -7.3400   15.7630   41.5810 C.3   480  ARG480      0.0485
    170  CD        -7.7910   16.5170   40.3290 C.3   480  ARG480      0.2205
    171  NE        -6.6600   17.1060   39.6190 N.pl3 480  ARG480     -0.0865
    172  CZ        -6.3640   18.4190   39.5580 C.cat 480  ARG480      0.5346
    173  NH1       -7.1240   19.3460   40.1610 N.pl3 480  ARG480      0.1354
    174  NH2       -5.2670   18.8060   38.8970 N.pl3 480  ARG480      0.1354
@<TRIPOS>BOND
     1    52    51    2
     2    49    50    1
     3    51    50    1
     4    55    57   ar
     5    55    54   ar
     6    53    50    1
     7    53    54    1
     8    82    81    2
     9    57    59   ar
    10    54    56   ar
    11    81    80    1
    12    74    73    2
    13    79    80    1
    14    59    58   ar
    15    56    58   ar
    16    83    80    1
    17    83    84    1
    18    73    72    1
    19    71    72    1
    20    85    84   ar
    21    85    87   ar
    22    84    86   ar
    23    72    75    1
    24    75    76    1
    25    60    61    1
    26    76    78    1
    27    76    77    1
    28    62    63    2
    29    62    61    1
    30    87    89   ar
    31   107   106    1
    32    86    88   ar
    33    61    64    1
    34   112   111    2
    35    89    88   ar
    36    64    65    1
    37    93    92    2
    38   108   106    1
    39   106   105    1
    40    65    66   ar
    41    65    67   ar
    42    66    68   ar
    43   111   110    1
    44   105   102    1
    45   109   110    1
    46   109   103   am
    47   102   103    1
    48   102   101    1
    49    67    69   ar
    50    92   101   am
    51    92    91    1
    52    68    70   ar
    53    90    91    1
    54   113   110    1
    55   113   114    1
    56   103   104    2
    57    69    70   ar
    58    91    94    1
    59    94    95    1
    60    99    98    1
    61    96    97    1
    62    96    95    1
    63    98    97    2
    64    98   100    1
    65   145   144    1
    66   118   117    2
    67   144   141    1
    68   129   128    2
    69   131   130    1
    70   143   142    2
    71   142   141    1
    72   124   123    1
    73   120   119    1
    74   120   121    1
    75   119   116    1
    76   130   127    1
    77   123   125    1
    78   123   122    2
    79   128   127    1
    80   128   132   am
    81   141   140    1
    82   140   134   am
    83   117   116    1
    84   126   127    1
    85   121   122    1
    86    38    40   ar
    87    38    36   ar
    88   115   116    1
    89    29    27   ar
    90   134   133    1
    91   134   135    2
    92   133   132    1
    93   133   136    1
    94    40    39   ar
    95    27    26    1
    96    27    28   ar
    97    25    24    2
    98    26    23    1
    99    36    35   ar
   100    10     9   ar
   101    10     8   ar
   102   139   137    1
   103   136   137    1
   104     9     7   ar
   105    24    23    1
   106    24    30   am
   107    39    37   ar
   108    23    22    1
   109     8     6   ar
   110    35    37   ar
   111    35    34    1
   112   137   138    1
   113    31    30    1
   114    31    34    1
   115    31    32    1
   116    47    46    2
   117     7     6   ar
   118     6     5    1
   119   150   151    1
   120   150   147    1
   121   149   148    2
   122    32    41   am
   123    32    33    2
   124    46    45    1
   125    46    48   am
   126     4     3    2
   127    41    42    1
   128    45    42    1
   129   148   147    1
   130   148   152   am
   131   146   147    1
   132   174   172    1
   133   162   161    2
   134   163   160    1
   135     5     2    1
   136     3     2    1
   137     3    11   am
   138    42    43    1
   139     2     1    1
   140   172   171    2
   141   172   173    1
   142   171   170    1
   143   152   153    1
   144   159   160    1
   145   159   154   am
   146   161   160    1
   147    19    17   ar
   148    19    21   ar
   149   153   154    1
   150   153   156    1
   151    17    16   ar
   152    12    11    1
   153    12    13    1
   154    12    15    1
   155   154   155    2
   156   170   169    1
   157    13    14    2
   158    21    20   ar
   159    43    44    2
   160    16    15    1
   161    16    18   ar
   162   158   156    1
   163   156   157    1
   164    20    18   ar
   165   169   168    1
   166   167   166    1
   167   168   165    1
   168   164   165    1
   169   166   165    1
