@<TRIPOS>MOLECULE
tmp/3c6oB01.pdb
 147 142 0 0 0
SMALL
GASTEIGER

@<TRIPOS>ATOM
      1  N         25.5550    7.5920   40.5520 N.3    69  HIS69      -0.1226
      2  CA        25.1770    8.2230   39.3240 C.3    69  HIS69       0.1752
      3  C         25.0990    9.7760   39.2700 C.2    69  HIS69       0.2596
      4  O         25.5770   10.3820   38.3130 O.2    69  HIS69      -0.2718
      5  CB        23.8680    7.6310   38.9200 C.3    69  HIS69       0.0759
      6  CG        23.3490    8.1620   37.6370 C.ar   69  HIS69       0.0818
      7  ND1       22.0150    8.4590   37.4460 N.ar   69  HIS69      -0.2268
      8  CD2       23.9800    8.4500   36.4730 C.ar   69  HIS69       0.1154
      9  CE1       21.8470    8.9120   36.2160 C.ar   69  HIS69       0.1986
     10  NE2       23.0240    8.9170   35.6050 N.ar   69  HIS69      -0.2212
     11  N         24.4770   10.4290   40.2460 N.am   70  PHE70      -0.1976
     12  CA        24.3860   11.9000   40.2380 C.3    70  PHE70       0.1639
     13  C         25.7430   12.6150   40.3670 C.2    70  PHE70       0.2290
     14  O         25.7850   13.8530   40.4960 O.2    70  PHE70      -0.2864
     15  CB        23.4630   12.3900   41.3390 C.3    70  PHE70       0.0560
     16  CG        22.0120   12.4010   40.9630 C.ar   70  PHE70      -0.0200
     17  CD1       21.4670   11.4070   40.1250 C.ar   70  PHE70      -0.0042
     18  CD2       21.1660   13.3990   41.4710 C.ar   70  PHE70      -0.0042
     19  CE1       20.0890   11.4080   39.7770 C.ar   70  PHE70      -0.0003
     20  CE2       19.8070   13.4040   41.1600 C.ar   70  PHE70      -0.0003
     21  CZ        19.2570   12.4040   40.2960 C.ar   70  PHE70      -0.0000
     22  N         26.2210   14.5770   37.2190 N.3    73  PHE73      -0.1241
     23  CA        25.6030   15.9100   37.1600 C.3    73  PHE73       0.1605
     24  C         26.3440   16.9330   38.0200 C.2    73  PHE73       0.2264
     25  O         25.8050   18.0000   38.3180 O.2    73  PHE73      -0.2867
     26  CB        24.0940   15.8450   37.4820 C.3    73  PHE73       0.0534
     27  CG        23.3840   14.7300   36.7600 C.ar   73  PHE73      -0.0203
     28  CD1       23.3310   14.7020   35.3600 C.ar   73  PHE73      -0.0042
     29  CD2       22.8250   13.6710   37.4540 C.ar   73  PHE73      -0.0042
     30  CE1       22.7180   13.6510   34.6580 C.ar   73  PHE73      -0.0003
     31  CE2       22.1910   12.6030   36.7360 C.ar   73  PHE73      -0.0003
     32  CZ        22.1540   12.6060   35.3260 C.ar   73  PHE73      -0.0000
     33  N         19.9420   12.9800   22.1910 N.3   337  PHE337     -0.1241
     34  CA        20.5060   13.9950   23.0380 C.3   337  PHE337      0.1605
     35  C         20.1330   15.3880   22.6110 C.2   337  PHE337      0.2264
     36  O         19.6240   15.5920   21.5360 O.2   337  PHE337     -0.2867
     37  CB        22.0150   13.7760   23.0860 C.3   337  PHE337      0.0534
     38  CG        22.3620   12.5100   23.7450 C.ar  337  PHE337     -0.0203
     39  CD1       22.5470   11.3860   23.0130 C.ar  337  PHE337     -0.0042
     40  CD2       22.3450   12.4230   25.1360 C.ar  337  PHE337     -0.0042
     41  CE1       22.7910   10.2060   23.6120 C.ar  337  PHE337     -0.0003
     42  CE2       22.6080   11.2350   25.7610 C.ar  337  PHE337     -0.0003
     43  CZ        22.8430   10.1240   24.9850 C.ar  337  PHE337     -0.0000
     44  N         16.0500    7.0670   25.7610 N.3   369  LEU369     -0.1245
     45  CA        16.4440    8.2330   26.4700 C.3   369  LEU369      0.1561
     46  C         16.0850    9.3140   25.5110 C.2   369  LEU369      0.2260
     47  O         16.5890    9.3420   24.4450 O.2   369  LEU369     -0.2867
     48  CB        17.9500    8.2810   26.6870 C.3   369  LEU369      0.0270
     49  CG        18.5830    9.5870   27.2520 C.3   369  LEU369      0.0019
     50  CD1       17.9680   10.0320   28.5350 C.3   369  LEU369      0.0001
     51  CD2       19.9720    9.3850   27.6250 C.3   369  LEU369      0.0001
     52  N         15.4960   13.5810   24.8880 N.3   371  PHE371     -0.1241
     53  CA        15.3200   14.9750   25.3050 C.3   371  PHE371      0.1605
     54  C         14.4860   15.8090   24.3100 C.2   371  PHE371      0.2264
     55  O         14.9540   16.1480   23.1870 O.2   371  PHE371     -0.2867
     56  CB        16.6460   15.6800   25.4530 C.3   371  PHE371      0.0534
     57  CG        17.5470   15.0810   26.4650 C.ar  371  PHE371     -0.0203
     58  CD1       17.9630   13.7270   26.3670 C.ar  371  PHE371     -0.0042
     59  CD2       18.0430   15.8610   27.5320 C.ar  371  PHE371     -0.0042
     60  CE1       18.8540   13.1630   27.3070 C.ar  371  PHE371     -0.0003
     61  CE2       18.9650   15.2880   28.4750 C.ar  371  PHE371     -0.0003
     62  CZ        19.3550   13.9510   28.3550 C.ar  371  PHE371     -0.0000
     63  N         13.4040    6.9660   29.8550 N.3   394  ARG394     -0.1231
     64  CA        14.0170    8.0680   30.5300 C.3   394  ARG394      0.1694
     65  C         13.6240    9.2590   29.7480 C.2   394  ARG394      0.2592
     66  O         14.1580    9.4730   28.6880 O.2   394  ARG394     -0.2718
     67  CB        15.5230    7.8820   30.5260 C.3   394  ARG394      0.0321
     68  CG        15.9440    6.7830   31.4620 C.3   394  ARG394      0.0489
     69  CD        17.2010    6.1380   30.9900 C.3   394  ARG394      0.2205
     70  NE        18.3010    7.0170   31.3160 N.pl3 394  ARG394     -0.0865
     71  CZ        19.6050    6.7560   31.2120 C.cat 394  ARG394      0.5346
     72  NH1       20.0650    5.6040   30.7370 N.pl3 394  ARG394      0.1354
     73  NH2       20.4610    7.6970   31.6030 N.pl3 394  ARG394      0.1354
     74  N         12.6660   10.0390   30.2050 N.am  395  LEU395     -0.1966
     75  CA        12.2340   11.1680   29.4160 C.3   395  LEU395      0.1728
     76  C         12.7470   12.3570   30.0860 C.2   395  LEU395      0.2616
     77  O         12.8540   12.3720   31.3030 O.2   395  LEU395     -0.2715
     78  CB        10.7330   11.2170   29.3390 C.3   395  LEU395      0.0311
     79  CG         9.9250   12.2090   28.5020 C.3   395  LEU395      0.0022
     80  CD1       10.5810   12.6480   27.1860 C.3   395  LEU395      0.0001
     81  CD2        8.7200   11.3700   28.2360 C.3   395  LEU395      0.0001
     82  N         13.1230   13.3560   29.3160 N.am  396  CYS396     -0.1968
     83  CA        13.6740   14.4930   29.9300 C.3   396  CYS396      0.1712
     84  C         13.1860   15.8070   29.2930 C.2   396  CYS396      0.2296
     85  O         13.7470   16.2230   28.3160 O.2   396  CYS396     -0.2864
     86  CB        15.1830   14.3710   29.9730 C.3   396  CYS396      0.0983
     87  SG        15.8640   16.0480   30.5090 S.3   396  CYS396     -0.0798
     88  N         13.4100    0.2540   34.6720 N.3   427  ARG427     -0.1301
     89  CA        13.9690    1.6050   34.8380 C.3   427  ARG427      0.1248
     90  C         13.3700    2.8180   34.2670 C.3   427  ARG427      0.2009
     91  O         12.7530    2.9070   33.1340 O.3   427  ARG427     -0.2188
     92  CB        15.2890    1.7230   33.9710 C.3   427  ARG427      0.0254
     93  CG        15.9750    3.0900   33.8990 C.3   427  ARG427      0.0485
     94  CD        17.4380    2.9690   34.4570 C.3   427  ARG427      0.2205
     95  NE        18.0030    4.2590   34.5330 N.pl3 427  ARG427     -0.0865
     96  CZ        19.2660    4.6080   34.2980 C.cat 427  ARG427      0.5346
     97  NH1       20.2580    3.7830   33.8590 N.pl3 427  ARG427      0.1354
     98  NH2       19.7520    5.8170   34.3500 N.pl3 427  ARG427      0.1354
     99  N         13.0280    7.5470   34.3780 N.3   429  SER429     -0.1202
    100  CA        13.4010    8.8960   34.7290 C.3   429  SER429      0.2020
    101  C         12.2790    9.7450   34.3000 C.2   429  SER429      0.2619
    102  O         11.6870    9.4410   33.2700 O.2   429  SER429     -0.2717
    103  CB        14.6270    9.3570   34.0330 C.3   429  SER429      0.2103
    104  OG        15.5340    8.3340   34.3250 O.3   429  SER429     -0.2182
    105  N         11.9500   10.7460   35.1190 N.am  430  LEU430     -0.1965
    106  CA        10.6870   11.4800   35.0470 C.3   430  LEU430      0.1728
    107  C         10.9750   12.9130   34.8630 C.2   430  LEU430      0.2616
    108  O         12.0620   13.4100   35.2770 O.2   430  LEU430     -0.2715
    109  CB         9.9280   11.4200   36.3580 C.3   430  LEU430      0.0311
    110  CG         9.2660   10.0790   36.6860 C.3   430  LEU430      0.0022
    111  CD1        8.8560   10.0830   38.1760 C.3   430  LEU430      0.0001
    112  CD2        8.0960    9.7340   35.7760 C.3   430  LEU430      0.0001
    113  N          9.9950   13.6000   34.2990 N.am  431  SER431     -0.1950
    114  CA        10.1140   15.0470   34.2090 C.3   431  SER431      0.1924
    115  C          8.8280   15.6410   33.7600 C.2   431  SER431      0.2314
    116  O          7.8470   14.9200   33.5350 O.2   431  SER431     -0.2863
    117  CB        11.2920   15.5170   33.3030 C.3   431  SER431      0.2116
    118  OG        11.3690   14.7400   32.1030 O.3   431  SER431     -0.2180
    119  N         14.6380    7.9280   38.9440 N.3   453  SER453     -0.1202
    120  CA        15.3480    9.1960   39.1360 C.3   453  SER453      0.2020
    121  C         14.3570   10.2890   38.8950 C.2   453  SER453      0.2619
    122  O         13.5290   10.1820   38.0120 O.2   453  SER453     -0.2717
    123  CB        16.5130    9.3990   38.1670 C.3   453  SER453      0.2103
    124  OG        16.9180    8.1930   37.5060 O.3   453  SER453     -0.2182
    125  N         14.4220   11.3340   39.7010 N.am  454  VAL454     -0.1965
    126  CA        13.2730   12.2220   39.8430 C.3   454  VAL454      0.1727
    127  C         13.9060   13.5670   40.1280 C.2   454  VAL454      0.2616
    128  O         14.9780   13.5870   40.7910 O.2   454  VAL454     -0.2715
    129  CB        12.4290   11.8240   41.0650 C.3   454  VAL454      0.0290
    130  CG1       11.2950   12.7130   41.1900 C.3   454  VAL454      0.0023
    131  CG2       11.8970   10.4430   40.9280 C.3   454  VAL454      0.0023
    132  N         13.2910   14.6500   39.6160 N.am  455  ALA455     -0.1977
    133  CA        13.8020   16.0030   39.7560 C.3   455  ALA455      0.1597
    134  C         12.6760   16.9990   39.6040 C.2   455  ALA455      0.2287
    135  O         11.8490   16.8900   38.7070 O.2   455  ALA455     -0.2864
    136  CB        14.7940   16.2670   38.7710 C.3   455  ALA455      0.0319
    137  N         16.2840   14.7930   43.4510 N.3   480  ARG480     -0.1245
    138  CA        16.8210   16.0910   43.6520 C.3   480  ARG480      0.1563
    139  C         15.7650   17.1820   43.4490 C.2   480  ARG480      0.2260
    140  O         14.8810   17.0650   42.5830 O.2   480  ARG480     -0.2867
    141  CB        17.9640   16.2810   42.7010 C.3   480  ARG480      0.0307
    142  CG        17.5550   15.9180   41.2880 C.3   480  ARG480      0.0489
    143  CD        18.5610   16.3280   40.2790 C.3   480  ARG480      0.2205
    144  NE        18.4670   17.7490   39.9550 N.pl3 480  ARG480     -0.0865
    145  CZ        19.3840   18.3990   39.2420 C.cat 480  ARG480      0.5346
    146  NH1       20.4660   17.7280   38.8030 N.pl3 480  ARG480      0.1354
    147  NH2       19.2290   19.7050   38.9760 N.pl3 480  ARG480      0.1354
@<TRIPOS>BOND
     1    36    35    2
     2    33    34    1
     3    35    34    1
     4    39    41   ar
     5    39    38   ar
     6    34    37    1
     7    37    38    1
     8    55    54    2
     9    41    43   ar
    10    38    40   ar
    11    54    53    1
    12    47    46    2
    13    52    53    1
    14    43    42   ar
    15    40    42   ar
    16    53    56    1
    17    56    57    1
    18    46    45    1
    19    44    45    1
    20    58    57   ar
    21    58    60   ar
    22    57    59   ar
    23    45    48    1
    24    48    49    1
    25    80    79    1
    26    49    51    1
    27    49    50    1
    28    60    62   ar
    29    59    61   ar
    30    81    79    1
    31    85    84    2
    32    62    61   ar
    33    79    78    1
    34    66    65    2
    35    84    83    1
    36    82    83    1
    37    82    76   am
    38    78    75    1
    39    75    76    1
    40    75    74    1
    41    65    74   am
    42    65    64    1
    43    63    64    1
    44    83    86    1
    45    86    87    1
    46    76    77    2
    47    67    64    1
    48    67    68    1
    49    72    71    1
    50    69    70    1
    51    69    68    1
    52    71    70    2
    53    71    73    1
    54   118   117    1
    55    91    90    1
    56   102   101    2
    57   117   114    1
    58   116   115    2
    59   115   114    1
    60    97    96    1
    61    93    92    1
    62    93    94    1
    63    92    89    1
    64   103   104    1
    65   103   100    1
    66   114   113    1
    67    90    89    1
    68    96    98    1
    69    96    95    2
    70   113   107   am
    71   101   100    1
    72   101   105   am
    73    99   100    1
    74    94    95    1
    75    30    32   ar
    76    30    28   ar
    77    88    89    1
    78   107   106    1
    79   107   108    2
    80   106   105    1
    81   106   109    1
    82    32    31   ar
    83    28    27   ar
    84    10     9   ar
    85    10     8   ar
    86   112   110    1
    87     9     7   ar
    88   109   110    1
    89     8     6   ar
    90   110   111    1
    91    31    29   ar
    92    27    29   ar
    93    27    26    1
    94    23    22    1
    95    23    26    1
    96    23    24    1
    97     7     6   ar
    98   124   123    1
    99     6     5    1
   100   122   121    2
   101    24    25    2
   102   123   120    1
   103     4     3    2
   104   135   134    2
   105   136   133    1
   106   146   145    1
   107   121   120    1
   108   121   125   am
   109     5     2    1
   110   119   120    1
   111   147   145    1
   112   145   144    2
   113     3     2    1
   114     3    11   am
   115     2     1    1
   116   134   133    1
   117   132   133    1
   118   132   127   am
   119   125   126    1
   120    19    17   ar
   121    19    21   ar
   122   126   127    1
   123   126   129    1
   124   144   143    1
   125    17    16   ar
   126   127   128    2
   127    12    11    1
   128    12    13    1
   129    12    15    1
   130   143   142    1
   131    21    20   ar
   132    13    14    2
   133   131   129    1
   134    16    15    1
   135    16    18   ar
   136   129   130    1
   137    20    18   ar
   138   142   141    1
   139   140   139    2
   140   141   138    1
   141   139   138    1
   142   137   138    1
