@<TRIPOS>MOLECULE
tmp/3c6qD00.pdb
 133 129 0 0 0
SMALL
GASTEIGER

@<TRIPOS>ATOM
      1  N        -34.7490  -45.1830    7.5950 N.3     9  LYS9       -0.1231
      2  CA       -35.6860  -44.0810    7.3570 C.3     9  LYS9        0.1693
      3  C        -35.2680  -43.1010    6.2500 C.2     9  LYS9        0.2592
      4  O        -36.1120  -42.5890    5.5110 O.2     9  LYS9       -0.2718
      5  CB       -36.0080  -43.3560    8.6720 C.3     9  LYS9        0.0285
      6  CG       -36.9850  -44.1510    9.5500 C.3     9  LYS9        0.0035
      7  CD       -37.0650  -43.6430   10.9890 C.3     9  LYS9        0.0206
      8  CE       -37.6690  -42.2560   11.0630 C.3     9  LYS9        0.1093
      9  NZ       -36.6530  -41.2480   10.6790 N.3     9  LYS9       -0.1314
     10  N        -33.9700  -42.8650    6.1120 N.am   10  SER10      -0.1952
     11  CA       -33.4930  -42.0170    5.0350 C.3    10  SER10       0.1924
     12  C        -32.0420  -42.3040    4.6960 C.2    10  SER10       0.2314
     13  O        -31.3910  -43.1180    5.3390 O.2    10  SER10      -0.2863
     14  CB       -33.6160  -40.5540    5.4270 C.3    10  SER10       0.2116
     15  OG       -32.4640  -40.1430    6.1460 O.3    10  SER10      -0.2180
     16  N        -28.6120  -41.0200    4.9740 N.3    12  HIS12      -0.1241
     17  CA       -27.8710  -40.0340    5.7420 C.3    12  HIS12       0.1621
     18  C        -26.7390  -40.7560    6.4400 C.2    12  HIS12       0.2264
     19  O        -26.8690  -41.9400    6.7490 O.2    12  HIS12      -0.2867
     20  CB       -28.8050  -39.3650    6.7670 C.3    12  HIS12       0.0745
     21  CG       -28.2010  -38.1880    7.4580 C.ar   12  HIS12       0.0817
     22  ND1      -27.2900  -38.3180    8.4860 N.ar   12  HIS12      -0.2268
     23  CD2      -28.3620  -36.8590    7.2630 C.ar   12  HIS12       0.1154
     24  CE1      -26.9160  -37.1180    8.8930 C.ar   12  HIS12       0.1986
     25  NE2      -27.5500  -36.2130    8.1660 N.ar   12  HIS12      -0.2212
     26  N        -25.9840  -40.7430    9.3770 N.3    14  TYR14      -0.1227
     27  CA       -26.4970  -41.3490   10.5990 C.3    14  TYR14       0.1736
     28  C        -26.8400  -42.8130   10.3630 C.2    14  TYR14       0.2595
     29  O        -26.4250  -43.6840   11.1230 O.2    14  TYR14      -0.2718
     30  CB       -27.7240  -40.5900   11.1200 C.3    14  TYR14       0.0548
     31  CG       -28.4960  -41.3330   12.1920 C.ar   14  TYR14      -0.0200
     32  CD1      -28.0480  -41.3580   13.5060 C.ar   14  TYR14      -0.0009
     33  CD2      -29.6680  -42.0120   11.8880 C.ar   14  TYR14      -0.0009
     34  CE1      -28.7430  -42.0410   14.4820 C.ar   14  TYR14       0.0417
     35  CE2      -30.3690  -42.6890   12.8530 C.ar   14  TYR14       0.0417
     36  CZ       -29.9020  -42.7080   14.1520 C.ar   14  TYR14       0.1957
     37  OH       -30.5930  -43.3830   15.1410 O.3    14  TYR14      -0.2866
     38  N        -27.5930  -43.0900    9.3050 N.am   15  TRP15      -0.1976
     39  CA       -27.9650  -44.4730    9.0210 C.3    15  TRP15       0.1640
     40  C        -26.7950  -45.3260    8.5400 C.2    15  TRP15       0.2290
     41  O        -26.8170  -46.5450    8.6860 O.2    15  TRP15      -0.2864
     42  CB       -29.1240  -44.5450    8.0420 C.3    15  TRP15       0.0576
     43  CG       -30.3780  -44.0750    8.6470 C.ar   15  TRP15       0.0006
     44  CD1      -30.9370  -42.8350    8.5320 C.ar   15  TRP15       0.0946
     45  CD2      -31.2450  -44.8340    9.4840 C.ar   15  TRP15       0.0152
     46  NE1      -32.1120  -42.7840    9.2380 N.ar   15  TRP15      -0.2442
     47  CE2      -32.3200  -43.9990    9.8340 C.ar   15  TRP15       0.0810
     48  CE3      -31.2100  -46.1350    9.9800 C.ar   15  TRP15       0.0012
     49  CZ2      -33.3540  -44.4290   10.6550 C.ar   15  TRP15       0.0191
     50  CZ3      -32.2360  -46.5590   10.7890 C.ar   15  TRP15       0.0001
     51  CH2      -33.2950  -45.7080   11.1200 C.ar   15  TRP15       0.0015
     52  N        -34.4560  -47.2860   16.5090 N.3    89  ASP89      -0.1239
     53  CA       -34.4310  -45.8410   16.2850 C.3    89  ASP89       0.1674
     54  C        -35.7620  -45.1270   16.5990 C.2    89  ASP89       0.2266
     55  O        -35.7650  -44.0570   17.2010 O.2    89  ASP89      -0.2867
     56  CB       -33.9470  -45.5140   14.8660 C.3    89  ASP89       0.1410
     57  CG       -34.0220  -44.0380   14.5530 C.2    89  ASP89       0.3668
     58  OD1      -33.1610  -43.2800   15.0380 O.co2  89  ASP89      -0.2456
     59  OD2      -34.9420  -43.6340   13.8150 O.co2  89  ASP89      -0.2456
     60  N        -40.1600  -41.1860   17.4990 N.3   137  ASN137     -0.1240
     61  CA       -38.9500  -40.5710   18.0580 C.3   137  ASN137      0.1653
     62  C        -38.9300  -39.0420   18.0020 C.2   137  ASN137      0.2266
     63  O        -38.4500  -38.3840   18.9300 O.2   137  ASN137     -0.2867
     64  CB       -37.6710  -41.1560   17.4380 C.3   137  ASN137      0.1155
     65  CG       -37.5200  -40.8140   15.9700 C.2   137  ASN137      0.2627
     66  OD1      -38.5100  -40.7110   15.2460 O.2   137  ASN137     -0.2716
     67  ND2      -36.2780  -40.6460   15.5200 N.am  137  ASN137     -0.0877
     68  N        -39.2340  -36.5400   21.2240 N.3   141  ARG141     -0.1245
     69  CA       -38.2020  -35.5520   21.5230 C.3   141  ARG141      0.1563
     70  C        -38.7570  -34.1330   21.6110 C.2   141  ARG141      0.2260
     71  O        -38.2080  -33.2870   22.3220 O.2   141  ARG141     -0.2867
     72  CB       -37.0630  -35.6260   20.5070 C.3   141  ARG141      0.0307
     73  CG       -36.3540  -36.9620   20.4940 C.3   141  ARG141      0.0489
     74  CD       -35.3600  -37.0490   19.3500 C.3   141  ARG141      0.2205
     75  NE       -35.1110  -38.4340   18.9620 N.pl3 141  ARG141     -0.0865
     76  CZ       -34.2390  -38.8110   18.0320 C.cat 141  ARG141      0.5346
     77  NH1      -33.5130  -37.9070   17.3850 N.pl3 141  ARG141      0.1354
     78  NH2      -34.0900  -40.0990   17.7510 N.pl3 141  ARG141      0.1354
     79  N        -36.9200  -34.7750    6.2870 N.3   164  GLU164     -0.1245
     80  CA       -35.6240  -35.4330    6.2030 C.3   164  GLU164      0.1567
     81  C        -34.9400  -35.1000    4.8770 C.2   164  GLU164      0.2260
     82  O        -34.4830  -35.9890    4.1480 O.2   164  GLU164     -0.2867
     83  CB       -35.7620  -36.9490    6.4200 C.3   164  GLU164      0.0388
     84  CG       -36.5250  -37.3300    7.7000 C.3   164  GLU164      0.1160
     85  CD       -36.2140  -38.7480    8.1890 C.2   164  GLU164      0.3649
     86  OE1      -35.0070  -39.0720    8.3490 O.co2 164  GLU164     -0.2457
     87  OE2      -37.1770  -39.5270    8.4260 O.co2 164  GLU164     -0.2457
     88  N        -33.5580  -33.9620   14.4330 N.3   190  TYR190     -0.1227
     89  CA       -33.0140  -35.0260   13.6060 C.3   190  TYR190      0.1736
     90  C        -31.5780  -34.7070   13.1920 C.2   190  TYR190      0.2595
     91  O        -31.0700  -33.6160   13.4800 O.2   190  TYR190     -0.2718
     92  CB       -33.8740  -35.1840   12.3650 C.3   190  TYR190      0.0548
     93  CG       -35.0090  -36.1630   12.4870 C.ar  190  TYR190     -0.0200
     94  CD1      -35.7430  -36.2780   13.6550 C.ar  190  TYR190     -0.0009
     95  CD2      -35.3680  -36.9610   11.4100 C.ar  190  TYR190     -0.0009
     96  CE1      -36.8060  -37.1840   13.7420 C.ar  190  TYR190      0.0417
     97  CE2      -36.4170  -37.8630   11.4910 C.ar  190  TYR190      0.0417
     98  CZ       -37.1300  -37.9670   12.6490 C.ar  190  TYR190      0.1957
     99  OH       -38.1560  -38.8710   12.7040 O.3   190  TYR190     -0.2866
    100  N        -30.9440  -35.6530   12.5000 N.am  191  ALA191     -0.1966
    101  CA       -29.5330  -35.5390   12.1040 C.3   191  ALA191      0.1728
    102  C        -29.2560  -34.3990   11.1150 C.2   191  ALA191      0.2616
    103  O        -28.2130  -33.7370   11.1850 O.2   191  ALA191     -0.2715
    104  CB       -29.0280  -36.8630   11.5420 C.3   191  ALA191      0.0334
    105  N        -30.1860  -34.1750   10.1930 N.am  192  TYR192     -0.1974
    106  CA       -30.0420  -33.0830    9.2400 C.3   192  TYR192      0.1639
    107  C        -30.0520  -31.7490    9.9700 C.2   192  TYR192      0.2290
    108  O        -29.2800  -30.8540    9.6440 O.2   192  TYR192     -0.2864
    109  CB       -31.1860  -33.0760    8.2150 C.3   192  TYR192      0.0560
    110  CG       -31.2860  -34.2870    7.3060 C.ar  192  TYR192     -0.0198
    111  CD1      -30.4670  -34.4180    6.1810 C.ar  192  TYR192     -0.0009
    112  CD2      -32.2250  -35.2840    7.5540 C.ar  192  TYR192     -0.0009
    113  CE1      -30.5680  -35.5240    5.3440 C.ar  192  TYR192      0.0417
    114  CE2      -32.3380  -36.3830    6.7260 C.ar  192  TYR192      0.0417
    115  CZ       -31.5120  -36.5010    5.6220 C.ar  192  TYR192      0.1957
    116  OH       -31.6420  -37.6010    4.8010 O.3   192  TYR192     -0.2866
    117  N        -27.4600  -36.1220   17.7000 N.3   216  ASP216     -0.1239
    118  CA       -26.4830  -36.8950   16.9390 C.3   216  ASP216      0.1674
    119  C        -25.0930  -36.2950   16.8820 C.2   216  ASP216      0.2266
    120  O        -24.9040  -35.1300   17.2090 O.2   216  ASP216     -0.2867
    121  CB       -27.0130  -37.1760   15.5560 C.3   216  ASP216      0.1410
    122  CG       -28.4060  -37.6980   15.6000 C.2   216  ASP216      0.3668
    123  OD1      -28.5960  -38.7310   16.2690 O.co2 216  ASP216     -0.2456
    124  OD2      -29.3030  -37.0730   14.9950 O.co2 216  ASP216     -0.2456
    125  N        -26.8670  -40.0750   19.9350 N.3   236  GLN236     -0.1245
    126  CA       -27.3850  -41.4320   20.0650 C.3   236  GLN236      0.1566
    127  C        -26.2610  -42.4330   19.7950 C.2   236  GLN236      0.2260
    128  O        -25.0980  -42.0500   19.6680 O.2   236  GLN236     -0.2867
    129  CB       -28.5440  -41.6670   19.0880 C.3   236  GLN236      0.0367
    130  CG       -29.8240  -40.9310   19.4220 C.3   236  GLN236      0.0905
    131  CD       -30.8810  -41.0540   18.3290 C.2   236  GLN236      0.2608
    132  OE1      -31.8320  -41.8490   18.4350 O.2   236  GLN236     -0.2717
    133  NE2      -30.7170  -40.2700   17.2690 N.am  236  GLN236     -0.0878
@<TRIPOS>BOND
     1    82    81    2
     2    12    11    1
     3    12    13    2
     4   116   115    1
     5    81    80    1
     6    16    17    1
     7    11    14    1
     8    11    10    1
     9   113   115   ar
    10   113   111   ar
    11    14    15    1
    12     4     3    2
    13   115   114   ar
    14    17    18    1
    15    17    20    1
    16    10     3   am
    17   111   110   ar
    18    80    79    1
    19    80    83    1
    20     3     2    1
    21    83    84    1
    22    18    19    2
    23   114   112   ar
    24    20    21    1
    25    23    21   ar
    26    23    25   ar
    27   110   112   ar
    28   110   109    1
    29     2     1    1
    30     2     5    1
    31    21    22   ar
    32    84    85    1
    33    42    43    1
    34    42    39    1
    35    25    24   ar
    36    85    86   ar
    37    85    87   ar
    38   109   106    1
    39    22    24   ar
    40    44    43   ar
    41    44    46   ar
    42    40    41    2
    43    40    39    1
    44    43    45   ar
    45     5     6    1
    46    39    38    1
    47    46    47   ar
    48   106   107    1
    49   106   105    1
    50    38    28   am
    51    26    27    1
    52    45    47   ar
    53    45    48   ar
    54     6     7    1
    55   108   107    2
    56    47    49   ar
    57    48    50   ar
    58   105   102   am
    59    28    27    1
    60    28    29    2
    61    27    30    1
    62    49    51   ar
    63     9     8    1
    64    50    51   ar
    65     7     8    1
    66   102   103    2
    67   102   101    1
    68    30    31    1
    69    95    97   ar
    70    95    93   ar
    71    97    98   ar
    72   104   101    1
    73    33    31   ar
    74    33    35   ar
    75   101   100    1
    76    31    32   ar
    77    92    93    1
    78    92    89    1
    79    93    94   ar
    80   100    90   am
    81    98    99    1
    82    98    96   ar
    83    35    36   ar
    84    90    91    2
    85    90    89    1
    86    32    34   ar
    87    89    88    1
    88    94    96   ar
    89    59    57   ar
    90    36    34   ar
    91    36    37    1
    92    57    56    1
    93    57    58   ar
    94    56    53    1
    95   124   122   ar
    96    66    65    2
    97    67    65   am
    98   121   122    1
    99   121   118    1
   100   122   123   ar
   101    65    64    1
   102    53    52    1
   103    53    54    1
   104    54    55    2
   105   119   118    1
   106   119   120    2
   107   118   117    1
   108   133   131   am
   109    77    76    1
   110    64    61    1
   111    60    61    1
   112    78    76    1
   113    62    61    1
   114    62    63    2
   115    76    75    2
   116   131   132    2
   117   131   130    1
   118    75    74    1
   119   129   130    1
   120   129   126    1
   121    74    73    1
   122   128   127    2
   123   127   126    1
   124   125   126    1
   125    73    72    1
   126    72    69    1
   127    68    69    1
   128    69    70    1
   129    70    71    2
