@<TRIPOS>MOLECULE
tmp/3c6tA00.pdb
 192 192 0 0 0
SMALL
GASTEIGER

@<TRIPOS>ATOM
      1  N         11.6500   21.4650   22.0790 N.3    97  PRO97      -0.2102
      2  CA        10.8660   21.2500   20.8350 C.3    97  PRO97       0.1504
      3  C          9.3700   21.2690   21.0850 C.2    97  PRO97       0.2575
      4  O          8.9140   20.7730   22.1360 O.2    97  PRO97      -0.2718
      5  CB        11.2700   19.8450   20.3920 C.3    97  PRO97       0.0282
      6  CG        12.5540   19.6020   21.0280 C.3    97  PRO97       0.0208
      7  CD        12.5840   20.3540   22.3270 C.3    97  PRO97       0.0893
      8  N          8.6330   21.8490   20.1330 N.am   98  HIS98      -0.1976
      9  CA         7.1880   21.7710   20.1620 C.3    98  HIS98       0.1656
     10  C          6.6690   20.6600   19.2400 C.2    98  HIS98       0.2291
     11  O          7.0860   20.5400   18.0780 O.2    98  HIS98      -0.2864
     12  CB         6.5210   23.1200   19.8620 C.3    98  HIS98       0.0771
     13  CG         5.0770   23.1740   20.2650 C.ar   98  HIS98       0.0820
     14  ND1        4.0700   22.6150   19.5030 N.ar   98  HIS98      -0.2267
     15  CD2        4.4740   23.6960   21.3590 C.ar   98  HIS98       0.1154
     16  CE1        2.9140   22.7700   20.1260 C.ar   98  HIS98       0.1986
     17  NE2        3.1280   23.4310   21.2490 N.ar   98  HIS98      -0.2212
     18  N          7.4190   19.2340   14.7950 N.3   102  LEU102     -0.1231
     19  CA         7.9830   17.9440   14.4390 C.3   102  LEU102      0.1693
     20  C          7.6780   17.5130   12.9990 C.2   102  LEU102      0.2592
     21  O          6.5100   17.2400   12.6960 O.2   102  LEU102     -0.2718
     22  CB         7.4880   16.8610   15.3970 C.3   102  LEU102      0.0284
     23  CG         8.0280   17.0210   16.8150 C.3   102  LEU102      0.0019
     24  CD1        7.3130   16.1270   17.7720 C.3   102  LEU102      0.0001
     25  CD2        9.5220   16.8370   16.8960 C.3   102  LEU102      0.0001
     26  N          8.6960   17.4480   12.1270 N.am  103  LYS103     -0.1966
     27  CA         8.5270   17.0070   10.7340 C.3   103  LYS103      0.1728
     28  C          7.9860   15.6100   10.7670 C.2   103  LYS103      0.2616
     29  O          8.4260   14.8090   11.5870 O.2   103  LYS103     -0.2715
     30  CB         9.8370   17.0280    9.9460 C.3   103  LYS103      0.0311
     31  CG        10.1680   18.4120    9.4270 C.3   103  LYS103      0.0038
     32  CD        11.3950   18.4740    8.5700 C.3   103  LYS103      0.0206
     33  CE        12.5750   19.2210    9.2490 C.3   103  LYS103      0.1093
     34  NZ        13.4740   18.2920   10.0510 N.3   103  LYS103     -0.1314
     35  N          6.9910   15.3420    9.9190 N.am  104  LYS104     -0.1963
     36  CA         6.3530   14.0400    9.7860 C.3   104  LYS104      0.1728
     37  C          7.3330   13.0890    9.1530 C.2   104  LYS104      0.2616
     38  O          7.8300   13.3180    8.0350 O.2   104  LYS104     -0.2715
     39  CB         5.1230   14.1570    8.8900 C.3   104  LYS104      0.0311
     40  CG         4.3140   12.8830    8.6900 C.3   104  LYS104      0.0038
     41  CD         3.2210   12.7300    9.7290 C.3   104  LYS104      0.0206
     42  CE         3.0620   11.2470   10.1660 C.3   104  LYS104      0.1093
     43  NZ         2.9500   10.2480    9.0230 N.3   104  LYS104     -0.1314
     44  N          7.6140   12.0150    9.8740 N.am  105  LYS105     -0.1963
     45  CA         8.6110   11.0330    9.4550 C.3   105  LYS105      0.1728
     46  C          8.0160    9.6560    9.2350 C.2   105  LYS105      0.2616
     47  O          7.0250    9.3160    9.8640 O.2   105  LYS105     -0.2715
     48  CB         9.7220   10.9900   10.4870 C.3   105  LYS105      0.0311
     49  CG        10.7440   12.0920   10.2490 C.3   105  LYS105      0.0038
     50  CD        11.2910   12.0450    8.8250 C.3   105  LYS105      0.0206
     51  CE        11.9260   13.3360    8.4550 C.3   105  LYS105      0.1093
     52  NZ        11.3570   13.6260    7.1110 N.3   105  LYS105     -0.1314
     53  N          8.5900    8.8650    8.3330 N.am  106  LYS106     -0.1963
     54  CA         8.0780    7.4990    8.1680 C.3   106  LYS106      0.1728
     55  C          8.2830    6.6580    9.4390 C.2   106  LYS106      0.2617
     56  O          7.3320    6.0670    9.9190 O.2   106  LYS106     -0.2715
     57  CB         8.6220    6.8160    6.9010 C.3   106  LYS106      0.0311
     58  CG         7.6110    5.7900    6.2530 C.3   106  LYS106      0.0038
     59  CD         7.9900    5.4240    4.7970 C.3   106  LYS106      0.0206
     60  CE         6.7630    5.1170    3.9390 C.3   106  LYS106      0.1093
     61  NZ         5.8410    6.3030    3.8070 N.3   106  LYS106     -0.1314
     62  N          9.4990    6.6460   10.0030 N.am  107  SER107     -0.1936
     63  CA         9.7590    5.9640   11.2920 C.3   107  SER107      0.2055
     64  C         10.5710    6.8290   12.2460 C.2   107  SER107      0.2643
     65  O         11.4220    7.6260   11.7930 O.2   107  SER107     -0.2714
     66  CB        10.5420    4.6920   11.0560 C.3   107  SER107      0.2130
     67  OG         9.8370    3.8420   10.1790 O.3   107  SER107     -0.2179
     68  N         10.3070    6.6870   13.5490 N.am  108  VAL108     -0.1963
     69  CA        11.1560    7.3070   14.5790 C.3   108  VAL108      0.1727
     70  C         11.3360    6.3540   15.7540 C.2   108  VAL108      0.2617
     71  O         10.4240    5.5800   16.0850 O.2   108  VAL108     -0.2715
     72  CB        10.6650    8.7410   15.1240 C.3   108  VAL108      0.0290
     73  CG1        9.8980    9.5330   14.0780 C.3   108  VAL108      0.0023
     74  CG2        9.8510    8.6620   16.4430 C.3   108  VAL108      0.0023
     75  N         12.5040    6.4060   16.3870 N.am  109  THR109     -0.1937
     76  CA        12.7050    5.6100   17.5950 C.3   109  THR109      0.2028
     77  C         13.3440    6.4260   18.7260 C.2   109  THR109      0.2642
     78  O         14.1350    7.3320   18.4820 O.2   109  THR109     -0.2714
     79  CB        13.4490    4.2050   17.3120 C.3   109  THR109      0.1808
     80  OG1       14.7020    4.4280   16.6650 O.3   109  THR109     -0.2208
     81  CG2       12.5720    3.2200   16.4460 C.3   109  THR109      0.0379
     82  N         12.9750    6.1290   19.9640 N.am  110  VAL110     -0.1977
     83  CA        13.5920    6.8540   21.0800 C.3   110  VAL110      0.1596
     84  C         14.7850    6.1200   21.6880 C.2   110  VAL110      0.2287
     85  O         14.6960    4.9200   22.0030 O.2   110  VAL110     -0.2864
     86  CB        12.5460    7.4570   22.1600 C.3   110  VAL110      0.0276
     87  CG1       11.1150    7.0930   21.8720 C.3   110  VAL110      0.0022
     88  CG2       12.9430    7.1940   23.6130 C.3   110  VAL110      0.0022
     89  N         17.0220   12.6900   11.0910 N.3   181  VAL181     -0.1245
     90  CA        16.8850   13.7530   12.0640 C.3   181  VAL181      0.1561
     91  C         17.1040   13.1890   13.4090 C.2   181  VAL181      0.2260
     92  O         16.5330   12.1410   13.7690 O.2   181  VAL181     -0.2867
     93  CB        15.5580   14.6380   11.9580 C.3   181  VAL181      0.0252
     94  CG1       14.8810   14.4550   10.6250 C.3   181  VAL181      0.0019
     95  CG2       14.5590   14.3830   13.0820 C.3   181  VAL181      0.0019
     96  N         16.8730   14.6530   17.0880 N.3   183  TYR183     -0.1241
     97  CA        16.5730   15.5730   18.1480 C.3   183  TYR183      0.1605
     98  C         17.4380   15.2250   19.3640 C.2   183  TYR183      0.2264
     99  O         17.4620   14.0710   19.7870 O.2   183  TYR183     -0.2867
    100  CB        15.0630   15.4970   18.4690 C.3   183  TYR183      0.0534
    101  CG        14.1610   16.3690   17.5500 C.ar  183  TYR183     -0.0201
    102  CD1       13.9480   17.7150   17.8280 C.ar  183  TYR183     -0.0009
    103  CD2       13.5130   15.8370   16.4490 C.ar  183  TYR183     -0.0009
    104  CE1       13.1360   18.5120   17.0100 C.ar  183  TYR183      0.0417
    105  CE2       12.6930   16.6100   15.6290 C.ar  183  TYR183      0.0417
    106  CZ        12.5010   17.9660   15.8950 C.ar  183  TYR183      0.1957
    107  OH        11.6570   18.7950   15.0760 O.3   183  TYR183     -0.2866
    108  N         16.0600   11.5320   19.7370 N.3   190  TYR190     -0.1241
    109  CA        14.8750   11.0140   19.0280 C.3   190  TYR190      0.1605
    110  C         15.2690   10.9930   17.6100 C.2   190  TYR190      0.2264
    111  O         15.7940   11.9970   17.0920 O.2   190  TYR190     -0.2867
    112  CB        13.6070   11.8630   19.2390 C.3   190  TYR190      0.0534
    113  CG        13.4360   12.2880   20.6670 C.ar  190  TYR190     -0.0201
    114  CD1       13.3080   13.6110   21.0050 C.ar  190  TYR190     -0.0009
    115  CD2       13.4780   11.3610   21.6860 C.ar  190  TYR190     -0.0009
    116  CE1       13.1920   14.0070   22.3230 C.ar  190  TYR190      0.0417
    117  CE2       13.3490   11.7360   23.0080 C.ar  190  TYR190      0.0417
    118  CZ        13.2170   13.0620   23.3130 C.ar  190  TYR190      0.1957
    119  OH        13.1070   13.4140   24.6260 O.3   190  TYR190     -0.2866
    120  N         14.3220   10.0930   13.5540 N.3   192  GLY192     -0.1225
    121  CA        13.3400    9.7920   12.5060 C.3   192  GLY192      0.1811
    122  C         13.8980    9.8410   11.1010 C.2   192  GLY192      0.2280
    123  O         14.8090   10.6160   10.8180 O.2   192  GLY192     -0.2866
    124  N          5.5850    3.8060   20.6580 N.3   227  PRO227     -0.2116
    125  CA         4.5630    4.8590   20.5840 C.3   227  PRO227      0.1372
    126  C          3.2330    4.3840   21.1410 C.2   227  PRO227      0.2244
    127  O          2.9180    3.2170   20.9850 O.2   227  PRO227     -0.2868
    128  CB         4.4110    5.0550   19.0730 C.3   227  PRO227      0.0268
    129  CG         4.9370    3.8280   18.4690 C.3   227  PRO227      0.0207
    130  CD         6.0890    3.4780   19.3170 C.3   227  PRO227      0.0892
    131  N          4.5840    7.7540   22.6630 N.3   229  PHE229     -0.1241
    132  CA         5.5250    8.3520   23.6030 C.3   229  PHE229      0.1605
    133  C          4.8540    9.4580   24.4050 C.2   229  PHE229      0.2264
    134  O          4.3590   10.4340   23.8400 O.2   229  PHE229     -0.2867
    135  CB         6.6950    8.9540   22.8890 C.3   229  PHE229      0.0534
    136  CG         7.2910    8.0730   21.8680 C.ar  229  PHE229     -0.0203
    137  CD1        7.6920    6.7680   22.1940 C.ar  229  PHE229     -0.0042
    138  CD2        7.4940    8.5440   20.5650 C.ar  229  PHE229     -0.0042
    139  CE1        8.2570    5.9120   21.2260 C.ar  229  PHE229     -0.0003
    140  CE2        8.0740    7.6940   19.5950 C.ar  229  PHE229     -0.0003
    141  CZ         8.4590    6.3640   19.9460 C.ar  229  PHE229     -0.0000
    142  N          5.5640   12.2980   26.4090 N.3   231  TRP231     -0.1241
    143  CA         6.7760   13.1270   26.6000 C.3   231  TRP231      0.1605
    144  C          6.3750   14.5250   27.0030 C.2   231  TRP231      0.2264
    145  O          5.5700   15.1600   26.3150 O.2   231  TRP231     -0.2867
    146  CB         7.6060   13.1640   25.3210 C.3   231  TRP231      0.0550
    147  CG         8.8010   14.0730   25.3050 C.ar  231  TRP231      0.0003
    148  CD1       10.0550   13.7670   25.6960 C.ar  231  TRP231      0.0946
    149  CD2        8.8710   15.4130   24.7850 C.ar  231  TRP231      0.0152
    150  NE1       10.9120   14.8310   25.5090 N.ar  231  TRP231     -0.2442
    151  CE2       10.2060   15.8620   24.9560 C.ar  231  TRP231      0.0810
    152  CE3        7.9340   16.2930   24.2230 C.ar  231  TRP231      0.0012
    153  CZ2       10.6270   17.1430   24.5750 C.ar  231  TRP231      0.0191
    154  CZ3        8.3650   17.5650   23.8680 C.ar  231  TRP231      0.0001
    155  CH2        9.7040   17.9760   24.0440 C.ar  231  TRP231      0.0015
    156  N          2.4880   11.3910   21.9150 N.3   236  LEU236     -0.1231
    157  CA         3.0270   11.4680   20.5750 C.3   236  LEU236      0.1693
    158  C          2.8150   10.2220   19.7430 C.2   236  LEU236      0.2592
    159  O          3.7450    9.4360   19.5950 O.2   236  LEU236     -0.2718
    160  CB         4.5150   11.7590   20.6480 C.3   236  LEU236      0.0284
    161  CG         5.0830   13.1320   21.0380 C.3   236  LEU236      0.0019
    162  CD1        6.2310   13.4110   20.1320 C.3   236  LEU236      0.0001
    163  CD2        4.1520   14.3020   20.9410 C.3   236  LEU236      0.0001
    164  N          1.6130   10.0380   19.1950 N.am  237  HIS237     -0.1962
    165  CA         1.3140    8.9460   18.2320 C.3   237  HIS237      0.1772
    166  C          2.0080    9.1280   16.8540 C.2   237  HIS237      0.2462
    167  O          2.5310   10.1780   16.5420 O.2   237  HIS237     -0.2730
    168  CB        -0.1810    8.8140   18.0260 C.3   237  HIS237      0.0785
    169  CG        -0.9740    8.7490   19.2900 C.ar  237  HIS237      0.0821
    170  ND1       -1.0170    9.7810   20.1950 N.ar  237  HIS237     -0.2267
    171  CD2       -1.7960    7.7870   19.7840 C.ar  237  HIS237      0.1154
    172  CE1       -1.8060    9.4540   21.2080 C.ar  237  HIS237      0.1986
    173  NE2       -2.3000    8.2510   20.9780 N.ar  237  HIS237     -0.2212
    174  N          2.0320    8.0860   16.0260 N.am  238  PRO238     -0.2727
    175  CA         2.7710    8.1860   14.7590 C.3   238  PRO238      0.1402
    176  C          2.2240    9.1510   13.6950 C.2   238  PRO238      0.2269
    177  O          2.9350    9.4860   12.7380 O.2   238  PRO238     -0.2865
    178  CB         2.7410    6.7350   14.2160 C.3   238  PRO238      0.0296
    179  CG         2.2930    5.8980   15.3230 C.3   238  PRO238      0.0237
    180  CD         1.4600    6.7370   16.2150 C.3   238  PRO238      0.0939
    181  N          1.2010   16.7370   12.4050 N.3   320  TYR320     -0.1241
    182  CA         2.6220   17.0700   12.3700 C.3   320  TYR320      0.1605
    183  C          2.9220   17.9880   11.2050 C.2   320  TYR320      0.2264
    184  O          2.0120   18.4250   10.5280 O.2   320  TYR320     -0.2867
    185  CB         3.4980   15.7990   12.3390 C.3   320  TYR320      0.0534
    186  CG         3.4210   14.9360   13.6080 C.ar  320  TYR320     -0.0201
    187  CD1        3.8790   15.4110   14.8290 C.ar  320  TYR320     -0.0009
    188  CD2        2.9290   13.6460   13.5560 C.ar  320  TYR320     -0.0009
    189  CE1        3.8160   14.6340   15.9840 C.ar  320  TYR320      0.0417
    190  CE2        2.8750   12.8680   14.6810 C.ar  320  TYR320      0.0417
    191  CZ         3.3320   13.3550   15.8960 C.ar  320  TYR320      0.1957
    192  OH         3.2370   12.5640   17.0230 O.3   320  TYR320     -0.2866
@<TRIPOS>BOND
     1    61    60    1
     2    60    59    1
     3    59    58    1
     4    58    57    1
     5    57    54    1
     6    52    51    1
     7    38    37    2
     8    54    53    1
     9    54    55    1
    10    53    46   am
    11    51    50    1
    12    32    33    1
    13    32    31    1
    14    40    39    1
    15    40    41    1
    16    50    49    1
    17    39    36    1
    18    43    42    1
    19    37    36    1
    20    37    44   am
    21    46    45    1
    22    46    47    2
    23    33    34    1
    24    31    30    1
    25    55    56    2
    26    55    62   am
    27    45    44    1
    28    45    48    1
    29    41    42    1
    30    36    35    1
    31    35    28   am
    32    30    27    1
    33    62    63    1
    34    67    66    1
    35    49    48    1
    36   184   183    2
    37    94    93    1
    38    27    28    1
    39    27    26    1
    40    28    29    2
    41   123   122    2
    42    66    63    1
    43    89    90    1
    44   122   121    1
    45   183   182    1
    46    63    64    1
    47    65    64    2
    48    93    90    1
    49    93    95    1
    50    90    91    1
    51    26    20   am
    52    64    68   am
    53   185   182    1
    54   185   186    1
    55   182   181    1
    56   121   120    1
    57    21    20    2
    58   177   176    2
    59    20    19    1
    60    91    92    2
    61    68    69    1
    62   188   186   ar
    63   188   190   ar
    64   186   187   ar
    65   176   175    1
    66    73    72    1
    67   178   175    1
    68   178   179    1
    69    19    18    1
    70    19    22    1
    71    69    72    1
    72    69    70    1
    73   190   191   ar
    74   175   174    1
    75   187   189   ar
    76   107   106    1
    77    72    74    1
    78   179   180    1
    79    22    23    1
    80   105   106   ar
    81   105   103   ar
    82    70    71    2
    83    70    75   am
    84   106   104   ar
    85   191   189   ar
    86   191   192    1
    87   174   180    1
    88   174   166   am
    89    75    76    1
    90    81    79    1
    91   103   101   ar
    92   167   166    2
    93    80    79    1
    94    23    25    1
    95    23    24    1
    96   166   165    1
    97   104   102   ar
    98    96    97    1
    99   111   110    2
   100    79    76    1
   101   101   102   ar
   102   101   100    1
   103    76    77    1
   104   110   109    1
   105   168   165    1
   106   168   169    1
   107    11    10    2
   108    97   100    1
   109    97    98    1
   110   165   164    1
   111   129   128    1
   112   129   130    1
   113    78    77    2
   114    77    82   am
   115   109   112    1
   116   109   108    1
   117   128   125    1
   118   164   158   am
   119   112   113    1
   120    10     9    1
   121   169   171   ar
   122   169   170   ar
   123   130   124    1
   124    98    99    2
   125    14    16   ar
   126    14    13   ar
   127   159   158    2
   128   140   141   ar
   129   140   138   ar
   130   158   157    1
   131   171   173   ar
   132    12     9    1
   133    12    13    1
   134   141   139   ar
   135    82    83    1
   136    16    17   ar
   137   162   161    1
   138     8     9    1
   139     8     3   am
   140   170   172   ar
   141    13    15   ar
   142     5     2    1
   143     5     6    1
   144   138   136   ar
   145   157   160    1
   146   157   156    1
   147   125   124    1
   148   125   126    1
   149   160   161    1
   150   113   114   ar
   151   113   115   ar
   152     2     3    1
   153     2     1    1
   154   163   161    1
   155   173   172   ar
   156   127   126    2
   157   114   116   ar
   158     6     7    1
   159    83    84    1
   160    83    86    1
   161     3     4    2
   162   139   137   ar
   163    17    15   ar
   164   115   117   ar
   165    84    85    2
   166   136   137   ar
   167   136   135    1
   168    87    86    1
   169     1     7    1
   170    86    88    1
   171   116   118   ar
   172   131   132    1
   173   135   132    1
   174   117   118   ar
   175   118   119    1
   176   132   133    1
   177   134   133    2
   178   154   155   ar
   179   154   152   ar
   180   155   153   ar
   181   152   149   ar
   182   153   151   ar
   183   149   151   ar
   184   149   147   ar
   185   151   150   ar
   186   147   146    1
   187   147   148   ar
   188   146   143    1
   189   150   148   ar
   190   145   144    2
   191   142   143    1
   192   143   144    1
