@<TRIPOS>MOLECULE
tmp/3c6wC00.pdb
 188 190 0 0 0
SMALL
GASTEIGER

@<TRIPOS>ATOM
      1  N         11.7300   19.1080   24.3980 N.3     2  GLU2       -0.1245
      2  CA        12.4270   18.7230   23.1730 C.3     2  GLU2        0.1567
      3  C         13.7820   19.4410   23.1280 C.2     2  GLU2        0.2260
      4  O         13.8920   20.6070   23.5030 O.2     2  GLU2       -0.2867
      5  CB        11.5690   19.1060   21.9630 C.3     2  GLU2        0.0388
      6  CG        12.2790   19.0440   20.6270 C.3     2  GLU2        0.1160
      7  CD        11.3270   19.2270   19.4610 C.2     2  GLU2        0.3649
      8  OE1       10.1520   19.5790   19.7000 O.co2   2  GLU2       -0.2457
      9  OE2       11.7550   19.0270   18.3070 O.co2   2  GLU2       -0.2457
     10  N         18.8820   23.2480   19.2390 N.3     5  TYR5       -0.1241
     11  CA        20.1490   23.2330   18.5060 C.3     5  TYR5        0.1605
     12  C         20.4110   24.6170   17.9400 C.2     5  TYR5        0.2264
     13  O         19.7010   25.5750   18.2370 O.2     5  TYR5       -0.2867
     14  CB        20.0730   22.2630   17.3220 C.3     5  TYR5        0.0534
     15  CG        19.5860   20.8750   17.6560 C.ar    5  TYR5       -0.0201
     16  CD1       18.2270   20.6090   17.8280 C.ar    5  TYR5       -0.0009
     17  CD2       20.4880   19.8280   17.8230 C.ar    5  TYR5       -0.0009
     18  CE1       17.7810   19.3300   18.1610 C.ar    5  TYR5        0.0417
     19  CE2       20.0560   18.5530   18.1540 C.ar    5  TYR5        0.0417
     20  CZ        18.7040   18.3090   18.3220 C.ar    5  TYR5        0.1957
     21  OH        18.2850   17.0410   18.6480 O.3     5  TYR5       -0.2866
     22  N         16.9170   26.9020   19.3750 N.3    10  GLN10      -0.1231
     23  CA        15.4970   26.5930   19.2120 C.3    10  GLN10       0.1698
     24  C         15.3800   25.1300   18.7860 C.2    10  GLN10       0.2592
     25  O         16.3730   24.5040   18.4170 O.2    10  GLN10      -0.2718
     26  CB        14.8670   27.4930   18.1480 C.3    10  GLN10       0.0381
     27  CG        14.9020   28.9690   18.4970 C.3    10  GLN10       0.0905
     28  CD        14.2580   29.2620   19.8370 C.2    10  GLN10       0.2608
     29  OE1       13.0780   28.9840   20.0450 O.2    10  GLN10      -0.2717
     30  NE2       15.0330   29.8240   20.7560 N.am   10  GLN10      -0.0878
     31  N         14.1660   24.5950   18.8440 N.am   11  VAL11      -0.1966
     32  CA        13.9240   23.2060   18.4600 C.3    11  VAL11       0.1727
     33  C         14.1550   23.0630   16.9600 C.2    11  VAL11       0.2617
     34  O         14.2160   24.0530   16.2300 O.2    11  VAL11      -0.2715
     35  CB        12.4780   22.7740   18.7820 C.3    11  VAL11       0.0290
     36  CG1       12.2160   22.9170   20.2740 C.3    11  VAL11       0.0023
     37  CG2       11.4920   23.6070   17.9750 C.3    11  VAL11       0.0023
     38  N         14.2670   21.8180   16.5080 N.am   12  SER12      -0.1936
     39  CA        14.4940   21.5190   15.0940 C.3    12  SER12       0.2055
     40  C         13.2730   21.9290   14.2720 C.2    12  SER12       0.2643
     41  O         12.1320   21.8020   14.7170 O.2    12  SER12      -0.2714
     42  CB        14.7260   20.0160   14.8980 C.3    12  SER12       0.2130
     43  OG        15.7520   19.5340   15.7420 O.3    12  SER12      -0.2179
     44  N         13.5280   22.4290   13.0700 N.am   13  TYR13      -0.1959
     45  CA        12.4580   22.8050   12.1510 C.3    13  TYR13       0.1771
     46  C         13.0830   23.0740   10.7950 C.2    13  TYR13       0.2620
     47  O         14.2520   23.4580   10.7070 O.2    13  TYR13      -0.2715
     48  CB        11.6750   24.0310   12.6560 C.3    13  TYR13       0.0574
     49  CG        12.4260   25.3460   12.6760 C.ar   13  TYR13      -0.0198
     50  CD1       12.7180   26.0290   11.4950 C.ar   13  TYR13      -0.0009
     51  CD2       12.8260   25.9180   13.8830 C.ar   13  TYR13      -0.0009
     52  CE1       13.3900   27.2540   11.5160 C.ar   13  TYR13       0.0417
     53  CE2       13.4980   27.1380   13.9160 C.ar   13  TYR13       0.0417
     54  CZ        13.7760   27.8000   12.7300 C.ar   13  TYR13       0.1957
     55  OH        14.4430   29.0060   12.7620 O.3    13  TYR13      -0.2866
     56  N         12.3070   22.8390    9.7430 N.am   14  GLY14      -0.1940
     57  CA        12.7900   23.0600    8.3930 C.3    14  GLY14       0.2014
     58  C         14.0220   22.2410    8.0680 C.2    14  GLY14       0.2639
     59  O         14.2480   21.1820    8.6490 O.2    14  GLY14      -0.2714
     60  N         14.8230   22.7390    7.1320 N.am   15  GLU15      -0.1963
     61  CA        16.0440   22.0510    6.7250 C.3    15  GLU15       0.1733
     62  C         17.1710   22.4750    7.6550 C.2    15  GLU15       0.2616
     63  O         17.3100   23.6560    7.9870 O.2    15  GLU15      -0.2715
     64  CB        16.4020   22.4100    5.2870 C.3    15  GLU15       0.0429
     65  CG        15.4410   21.8620    4.2550 C.3    15  GLU15       0.1163
     66  CD        15.8770   22.1860    2.8420 C.2    15  GLU15       0.3649
     67  OE1       15.7510   23.3610    2.4360 O.co2  15  GLU15      -0.2457
     68  OE2       16.3580   21.2680    2.1460 O.co2  15  GLU15      -0.2457
     69  N         17.9780   21.5050    8.0710 N.am   16  MET16      -0.1963
     70  CA        19.0860   21.7820    8.9710 C.3    16  MET16       0.1736
     71  C         20.3430   21.1270    8.4160 C.2    16  MET16       0.2616
     72  O         20.2800   20.0980    7.7400 O.2    16  MET16      -0.2715
     73  CB        18.7560   21.2630   10.3720 C.3    16  MET16       0.0427
     74  CG        17.5120   21.9330   10.9610 C.3    16  MET16       0.0599
     75  SD        17.1450   21.4470   12.6510 S.3    16  MET16      -0.1393
     76  CE        18.4340   22.3290   13.5350 C.3    16  MET16       0.0692
     77  N         21.4860   21.7390    8.7010 N.am   17  ILE17      -0.1963
     78  CA        22.7610   21.2420    8.2040 C.3    17  ILE17       0.1727
     79  C         23.6820   20.9350    9.3870 C.2    17  ILE17       0.2617
     80  O         23.6250   21.5950   10.4290 O.2    17  ILE17      -0.2715
     81  CB        23.4070   22.2920    7.2720 C.3    17  ILE17       0.0290
     82  CG1       24.6990   21.7450    6.6680 C.3    17  ILE17       0.0022
     83  CG2       23.6520   23.5870    8.0390 C.3    17  ILE17       0.0023
     84  CD1       25.2600   22.6210    5.5690 C.3    17  ILE17       0.0001
     85  N         24.5230   19.9180    9.2160 N.am   18  GLY18      -0.1940
     86  CA        25.4470   19.5310   10.2640 C.3    18  GLY18       0.2014
     87  C         26.8540   20.0240    9.9910 C.2    18  GLY18       0.2639
     88  O         27.3420   19.9430    8.8650 O.2    18  GLY18      -0.2714
     89  N         27.5080   20.5400   11.0250 N.am   19  CYS19      -0.1953
     90  CA        28.8730   21.0480   10.8970 C.3    19  CYS19       0.1843
     91  C         29.8110   19.8570   10.6880 C.2    19  CYS19       0.2625
     92  O         29.7040   18.8470   11.3800 O.2    19  CYS19      -0.2714
     93  CB        29.2630   21.8130   12.1620 C.3    19  CYS19       0.0997
     94  SG        30.8930   22.5620   12.0750 S.3    19  CYS19      -0.0797
     95  N         30.7420   19.9860    9.7490 N.am   20  ASP20      -0.1971
     96  CA        31.6550   18.8870    9.4590 C.3    20  ASP20       0.1709
     97  C         32.8520   18.8420   10.4080 C.2    20  ASP20       0.2293
     98  O         33.7940   18.0820   10.1840 O.2    20  ASP20      -0.2864
     99  CB        32.0910   18.9260    7.9950 C.3    20  ASP20       0.1436
    100  CG        31.0330   18.3430    7.0760 C.2    20  ASP20       0.3671
    101  OD1       30.5380   17.2410    7.3930 O.co2  20  ASP20      -0.2456
    102  OD2       30.6920   18.9700    6.0560 O.co2  20  ASP20      -0.2456
    103  N         26.8520   21.4550   16.3810 N.3    27  GLU27      -0.1231
    104  CA        26.6170   20.3770   15.4050 C.3    27  GLU27       0.1699
    105  C         25.5080   20.6470   14.3740 C.2    27  GLU27       0.2592
    106  O         25.7620   20.5450   13.1760 O.2    27  GLU27      -0.2718
    107  CB        26.3300   19.0510   16.1160 C.3    27  GLU27       0.0402
    108  CG        26.2970   17.8700   15.1570 C.3    27  GLU27       0.1161
    109  CD        26.1650   16.5310   15.8560 C.2    27  GLU27       0.3649
    110  OE1       26.2120   15.4970   15.1560 O.co2  27  GLU27      -0.2457
    111  OE2       26.0150   16.5100   17.0970 O.co2  27  GLU27      -0.2457
    112  N         24.2910   20.9660   14.8060 N.am   28  TRP28      -0.1976
    113  CA        23.1990   21.1770   13.8320 C.3    28  TRP28       0.1640
    114  C         22.7030   22.6190   13.8390 C.2    28  TRP28       0.2290
    115  O         22.5560   23.2320   14.8930 O.2    28  TRP28      -0.2864
    116  CB        22.0430   20.2160   14.1160 C.3    28  TRP28       0.0576
    117  CG        22.4010   18.7860   13.8520 C.ar   28  TRP28       0.0006
    118  CD1       22.8650   17.8710   14.7540 C.ar   28  TRP28       0.0946
    119  CD2       22.3620   18.1200   12.5870 C.ar   28  TRP28       0.0152
    120  NE1       23.1160   16.6730   14.1260 N.ar   28  TRP28      -0.2442
    121  CE2       22.8160   16.7990   12.7950 C.ar   28  TRP28       0.0810
    122  CE3       21.9870   18.5120   11.2950 C.ar   28  TRP28       0.0012
    123  CZ2       22.9050   15.8650   11.7560 C.ar   28  TRP28       0.0191
    124  CZ3       22.0770   17.5840   10.2620 C.ar   28  TRP28       0.0001
    125  CH2       22.5330   16.2750   10.5020 C.ar   28  TRP28       0.0015
    126  N         18.9460   26.1820    8.3880 N.3    31  PHE31      -0.1241
    127  CA        19.4850   26.7960    7.1630 C.3    31  PHE31       0.1605
    128  C         19.5160   28.3310    7.2450 C.2    31  PHE31       0.2264
    129  O         20.5560   28.9460    7.0160 O.2    31  PHE31      -0.2867
    130  CB        18.6570   26.3960    5.9360 C.3    31  PHE31       0.0534
    131  CG        19.1390   25.1490    5.2400 C.ar   31  PHE31      -0.0203
    132  CD1       18.8580   24.9500    3.8890 C.ar   31  PHE31      -0.0042
    133  CD2       19.8500   24.1700    5.9260 C.ar   31  PHE31      -0.0042
    134  CE1       19.2760   23.7940    3.2290 C.ar   31  PHE31      -0.0003
    135  CE2       20.2740   23.0060    5.2770 C.ar   31  PHE31      -0.0003
    136  CZ        19.9850   22.8190    3.9230 C.ar   31  PHE31      -0.0000
    137  N         21.2330   23.6190    0.0870 N.3    39  LYS39      -0.1231
    138  CA        22.3600   22.9240    0.7200 C.3    39  LYS39       0.1678
    139  C         23.6390   23.0140   -0.1160 C.2    39  LYS39       0.2434
    140  O         23.6010   22.9900   -1.3480 O.2    39  LYS39      -0.2733
    141  CB        22.0180   21.4510    0.9540 C.3    39  LYS39       0.0284
    142  CG        21.9280   20.6250   -0.3190 C.3    39  LYS39       0.0035
    143  CD        21.5860   19.1760   -0.0130 C.3    39  LYS39       0.0206
    144  CE        21.4950   18.3500   -1.2860 C.3    39  LYS39       0.1093
    145  NZ        21.1610   16.9270   -1.0020 N.3    39  LYS39      -0.1314
    146  N         24.7940   23.1240    0.5630 N.am   40  PRO40      -0.2718
    147  CA        26.1100   23.2120   -0.0750 C.3    40  PRO40       0.1535
    148  C         26.4280   21.8910   -0.7750 C.2    40  PRO40       0.2598
    149  O         25.9560   20.8320   -0.3620 O.2    40  PRO40      -0.2715
    150  CB        27.0480   23.4740    1.1020 C.3    40  PRO40       0.0310
    151  CG        26.1740   24.2070    2.0730 C.3    40  PRO40       0.0237
    152  CD        24.8990   23.4100    2.0050 C.3    40  PRO40       0.0939
    153  N         27.2410   21.9610   -1.8220 N.am   41  LYS41      -0.1964
    154  CA        27.6070   20.7730   -2.5930 C.3    41  LYS41       0.1728
    155  C         28.5500   19.8840   -1.7720 C.2    41  LYS41       0.2617
    156  O         28.3380   18.6740   -1.6650 O.2    41  LYS41      -0.2715
    157  CB        28.2990   21.1910   -3.8930 C.3    41  LYS41       0.0311
    158  CG        27.7930   22.5040   -4.4830 C.3    41  LYS41       0.0038
    159  CD        26.3000   22.4720   -4.7880 C.3    41  LYS41       0.0206
    160  CE        25.8350   23.8080   -5.3530 C.3    41  LYS41       0.1093
    161  NZ        24.3680   23.8460   -5.6190 N.3    41  LYS41      -0.1314
    162  N         29.5870   20.4860   -1.1960 N.am   42  GLY42      -0.1940
    163  CA        30.5470   19.7180   -0.4220 C.3    42  GLY42       0.2014
    164  C         30.4570   19.8640    1.0840 C.2    42  GLY42       0.2639
    165  O         29.3710   20.0150    1.6410 O.2    42  GLY42      -0.2714
    166  N         31.6090   19.8110    1.7480 N.am   43  LYS43      -0.1963
    167  CA        31.6580   19.9280    3.2020 C.3    43  LYS43       0.1728
    168  C         31.2770   21.3420    3.6150 C.2    43  LYS43       0.2616
    169  O         31.3890   22.2840    2.8330 O.2    43  LYS43      -0.2715
    170  CB        33.0520   19.5860    3.7250 C.3    43  LYS43       0.0311
    171  CG        33.3660   18.1010    3.7040 C.3    43  LYS43       0.0038
    172  CD        34.5400   17.7980    4.6150 C.3    43  LYS43       0.0206
    173  CE        34.6970   16.3130    4.8550 C.3    43  LYS43       0.1093
    174  NZ        35.7680   16.0520    5.8560 N.3    43  LYS43      -0.1314
    175  N         30.8340   21.4800    4.8590 N.am   44  TRP44      -0.1974
    176  CA        30.4070   22.7740    5.3810 C.3    44  TRP44       0.1640
    177  C         30.7970   22.8670    6.8570 C.2    44  TRP44       0.2290
    178  O         30.6720   21.8950    7.6000 O.2    44  TRP44      -0.2864
    179  CB        28.8850   22.9020    5.2530 C.3    44  TRP44       0.0576
    180  CG        28.3280   24.1650    5.8430 C.ar   44  TRP44       0.0006
    181  CD1       28.2390   25.3840    5.2370 C.ar   44  TRP44       0.0946
    182  CD2       27.8080   24.3360    7.1670 C.ar   44  TRP44       0.0152
    183  NE1       27.6960   26.3050    6.1000 N.ar   44  TRP44      -0.2442
    184  CE2       27.4220   25.6890    7.2920 C.ar   44  TRP44       0.0810
    185  CE3       27.6310   23.4770    8.2610 C.ar   44  TRP44       0.0012
    186  CZ2       26.8680   26.2050    8.4690 C.ar   44  TRP44       0.0191
    187  CZ3       27.0800   23.9900    9.4330 C.ar   44  TRP44       0.0001
    188  CH2       26.7050   25.3430    9.5250 C.ar   44  TRP44       0.0015
@<TRIPOS>BOND
     1   161   160    1
     2   160   159    1
     3   159   158    1
     4   158   157    1
     5   157   154    1
     6   154   153    1
     7   154   155    1
     8   153   148   am
     9   155   156    2
    10   155   162   am
    11   140   139    2
    12   144   145    1
    13   144   143    1
    14   162   163    1
    15   148   149    2
    16   148   147    1
    17   163   164    1
    18   142   143    1
    19   142   141    1
    20   139   146   am
    21   139   138    1
    22   147   146    1
    23   147   150    1
    24   137   138    1
    25   146   152    1
    26   138   141    1
    27   164   165    2
    28   164   166   am
    29   150   151    1
    30   166   167    1
    31   152   151    1
    32    68    66   ar
    33    67    66   ar
    34   169   168    2
    35    66    65    1
    36   167   168    1
    37   167   170    1
    38   134   132   ar
    39   134   136   ar
    40   168   175   am
    41   171   170    1
    42   171   172    1
    43   132   131   ar
    44   136   135   ar
    45    65    64    1
    46   172   173    1
    47   173   174    1
    48   175   176    1
    49   181   180   ar
    50   181   183   ar
    51   131   133   ar
    52   131   130    1
    53   179   176    1
    54   179   180    1
    55   135   133   ar
    56    64    61    1
    57   176   177    1
    58    84    82    1
    59   180   182   ar
    60   130   127    1
    61   102   100   ar
    62   183   184   ar
    63    82    81    1
    64    61    60    1
    65    61    62    1
    66   177   178    2
    67   129   128    2
    68   100   101   ar
    69   100    99    1
    70    60    58   am
    71   127   128    1
    72   127   126    1
    73   182   184   ar
    74   182   185   ar
    75    81    83    1
    76    81    78    1
    77   184   186   ar
    78    62    63    2
    79    62    69   am
    80    72    71    2
    81    99    96    1
    82    58    57    1
    83    58    59    2
    84    69    70    1
    85    78    77    1
    86    78    79    1
    87   185   187   ar
    88    57    56    1
    89    71    77   am
    90    71    70    1
    91   186   188   ar
    92    88    87    2
    93    70    73    1
    94    85    79   am
    95    85    86    1
    96    79    80    2
    97   187   188   ar
    98    96    95    1
    99    96    97    1
   100    56    46   am
   101    95    91   am
   102    87    86    1
   103    87    89   am
   104    98    97    2
   105   124   125   ar
   106   124   122   ar
   107    73    74    1
   108   125   123   ar
   109    91    90    1
   110    91    92    2
   111    47    46    2
   112    46    45    1
   113    90    89    1
   114    90    93    1
   115    74    75    1
   116   122   119   ar
   117    50    52   ar
   118    50    49   ar
   119    52    54   ar
   120   123   121   ar
   121    94    93    1
   122    45    48    1
   123    45    44    1
   124   119   121   ar
   125   119   117   ar
   126    75    76    1
   127    48    49    1
   128    49    51   ar
   129    54    55    1
   130    54    53   ar
   131   121   120   ar
   132    44    40   am
   133   106   105    2
   134   113   114    1
   135   113   116    1
   136   113   112    1
   137   114   115    2
   138   117   116    1
   139   117   118   ar
   140    51    53   ar
   141   120   118   ar
   142    40    41    2
   143    40    39    1
   144   105   112   am
   145   105   104    1
   146    42    39    1
   147    42    43    1
   148    39    38    1
   149   110   109   ar
   150   108   109    1
   151   108   107    1
   152   104   107    1
   153   104   103    1
   154   109   111   ar
   155    34    33    2
   156    38    33   am
   157    33    32    1
   158    14    15    1
   159    14    11    1
   160    15    17   ar
   161    15    16   ar
   162    17    19   ar
   163    16    18   ar
   164    12    13    2
   165    12    11    1
   166    37    35    1
   167    26    27    1
   168    26    23    1
   169    19    20   ar
   170    18    20   ar
   171     9     7   ar
   172    20    21    1
   173    25    24    2
   174    32    35    1
   175    32    31    1
   176    27    28    1
   177    11    10    1
   178    35    36    1
   179    24    31   am
   180    24    23    1
   181    23    22    1
   182     7     8   ar
   183     7     6    1
   184    28    29    2
   185    28    30   am
   186     6     5    1
   187     5     2    1
   188     3     2    1
   189     3     4    2
   190     2     1    1
