@<TRIPOS>MOLECULE
tmp/3c7cA01.pdb
 143 142 0 0 0
SMALL
GASTEIGER

@<TRIPOS>ATOM
      1  N        -12.2580  -24.8000   12.8420 N.3   141  GLU141     -0.1231
      2  CA       -11.7500  -24.2170   14.0930 C.3   141  GLU141      0.1699
      3  C        -12.2360  -24.9260   15.3550 C.2   141  GLU141      0.2592
      4  O        -11.5240  -24.9710   16.3570 O.2   141  GLU141     -0.2718
      5  CB       -12.0590  -22.7120   14.1670 C.3   141  GLU141      0.0402
      6  CG       -13.5430  -22.3400   14.0460 C.3   141  GLU141      0.1161
      7  CD       -13.7930  -20.8330   14.0140 C.2   141  GLU141      0.3649
      8  OE1      -13.0880  -20.0780   14.7260 O.co2 141  GLU141     -0.2457
      9  OE2      -14.7120  -20.4080   13.2760 O.co2 141  GLU141     -0.2457
     10  N        -13.4480  -25.4730   15.2890 N.am  142  THR142     -0.1953
     11  CA       -14.0570  -26.2270   16.3870 C.3   142  THR142      0.1897
     12  C        -15.2410  -27.0360   15.8400 C.2   142  THR142      0.2313
     13  O        -15.5580  -26.9430   14.6500 O.2   142  THR142     -0.2863
     14  CB       -14.4880  -25.2990   17.5650 C.3   142  THR142      0.1794
     15  OG1      -14.7360  -26.0830   18.7380 O.3   142  THR142     -0.2208
     16  CG2      -15.7330  -24.4780   17.2140 C.3   142  THR142      0.0378
     17  N         -4.8340  -19.3880   15.5380 N.3   205  MET205     -0.1230
     18  CA        -6.1220  -18.8850   16.0300 C.3   205  MET205      0.1702
     19  C         -6.9030  -19.9160   16.8550 C.2   205  MET205      0.2593
     20  O         -8.0170  -19.6420   17.3090 O.2   205  MET205     -0.2718
     21  CB        -6.9800  -18.3640   14.8750 C.3   205  MET205      0.0401
     22  CG        -6.6300  -16.9560   14.4280 C.3   205  MET205      0.0596
     23  SD        -6.9040  -15.7280   15.7150 S.3   205  MET205     -0.1393
     24  CE        -8.6670  -15.8950   15.9860 C.3   205  MET205      0.0692
     25  N         -6.3140  -21.0970   17.0420 N.am  206  SER206     -0.1938
     26  CA        -6.8110  -22.0740   18.0090 C.3   206  SER206      0.2055
     27  C         -6.7080  -21.5030   19.4180 C.2   206  SER206      0.2643
     28  O         -7.4820  -21.8830   20.2980 O.2   206  SER206     -0.2714
     29  CB        -5.9960  -23.3660   17.9460 C.3   206  SER206      0.2130
     30  OG        -5.9970  -23.9180   16.6450 O.3   206  SER206     -0.2179
     31  N         -5.7490  -20.5910   19.6100 N.am  207  TYR207     -0.1959
     32  CA        -5.4030  -20.0290   20.9190 C.3   207  TYR207      0.1771
     33  C         -5.1670  -21.1410   21.9490 C.2   207  TYR207      0.2620
     34  O         -5.7640  -21.1370   23.0320 O.2   207  TYR207     -0.2715
     35  CB        -6.4850  -19.0610   21.4250 C.3   207  TYR207      0.0574
     36  CG        -6.6650  -17.7670   20.6520 C.ar  207  TYR207     -0.0198
     37  CD1       -5.5730  -17.0310   20.1880 C.ar  207  TYR207     -0.0009
     38  CD2       -7.9430  -17.2510   20.4320 C.ar  207  TYR207     -0.0009
     39  CE1       -5.7560  -15.8300   19.4960 C.ar  207  TYR207      0.0417
     40  CE2       -8.1350  -16.0560   19.7450 C.ar  207  TYR207      0.0417
     41  CZ        -7.0420  -15.3530   19.2820 C.ar  207  TYR207      0.1957
     42  OH        -7.2440  -14.1770   18.6050 O.3   207  TYR207     -0.2866
     43  N         -4.2890  -22.0840   21.6030 N.am  208  SER208     -0.1950
     44  CA        -4.0640  -23.2950   22.4040 C.3   208  SER208      0.1924
     45  C         -3.5930  -23.0280   23.8390 C.2   208  SER208      0.2314
     46  O         -3.5700  -23.9360   24.6740 O.2   208  SER208     -0.2863
     47  CB        -3.0890  -24.2300   21.6860 C.3   208  SER208      0.2116
     48  OG        -3.6440  -24.6970   20.4700 O.3   208  SER208     -0.2180
     49  N         -5.1030  -20.8790   25.9700 N.3   210  VAL210     -0.1231
     50  CA        -6.2030  -20.4030   26.8260 C.3   210  VAL210      0.1692
     51  C         -6.4840  -21.2730   28.0590 C.2   210  VAL210      0.2592
     52  O         -6.3700  -20.7920   29.1870 O.2   210  VAL210     -0.2718
     53  CB        -7.5050  -20.1300   26.0150 C.3   210  VAL210      0.0266
     54  CG1       -8.6680  -19.7880   26.9310 C.3   210  VAL210      0.0020
     55  CG2       -7.2880  -18.9980   25.0380 C.3   210  VAL210      0.0020
     56  N         -6.8400  -22.5400   27.8470 N.am  211  HIS211     -0.1976
     57  CA        -7.1620  -23.4500   28.9570 C.3   211  HIS211      0.1656
     58  C         -5.9720  -23.7610   29.8720 C.2   211  HIS211      0.2291
     59  O         -6.1360  -23.7810   31.0940 O.2   211  HIS211     -0.2864
     60  CB        -7.8050  -24.7470   28.4550 C.3   211  HIS211      0.0771
     61  CG        -9.1350  -24.5470   27.8000 C.ar  211  HIS211      0.0820
     62  ND1      -10.2320  -24.0630   28.4780 N.ar  211  HIS211     -0.2267
     63  CD2       -9.5450  -24.7700   26.5290 C.ar  211  HIS211      0.1154
     64  CE1      -11.2610  -23.9940   27.6530 C.ar  211  HIS211      0.1986
     65  NE2      -10.8710  -24.4180   26.4640 N.ar  211  HIS211     -0.2212
     66  N        -13.6670  -19.8240   33.6510 N.3   234  TYR234     -0.1241
     67  CA       -13.3630  -18.6110   32.8950 C.3   234  TYR234      0.1605
     68  C        -13.5200  -17.3530   33.7450 C.2   234  TYR234      0.2264
     69  O        -12.6640  -16.4700   33.7180 O.2   234  TYR234     -0.2867
     70  CB       -14.2480  -18.5060   31.6500 C.3   234  TYR234      0.0534
     71  CG       -14.1150  -19.6600   30.6800 C.ar  234  TYR234     -0.0201
     72  CD1      -14.9850  -20.7480   30.7410 C.ar  234  TYR234     -0.0009
     73  CD2      -13.1240  -19.6610   29.6960 C.ar  234  TYR234     -0.0009
     74  CE1      -14.8730  -21.8110   29.8500 C.ar  234  TYR234      0.0417
     75  CE2      -12.9990  -20.7240   28.8000 C.ar  234  TYR234      0.0417
     76  CZ       -13.8790  -21.7930   28.8860 C.ar  234  TYR234      0.1957
     77  OH       -13.7770  -22.8450   28.0100 O.3   234  TYR234     -0.2866
     78  N         -6.7400  -11.7730   21.1630 N.3   274  ILE274     -0.1245
     79  CA        -7.8270  -12.5060   21.8020 C.3   274  ILE274      0.1561
     80  C         -8.8770  -11.5270   22.3380 C.2   274  ILE274      0.2260
     81  O        -10.0680  -11.8380   22.3680 O.2   274  ILE274     -0.2867
     82  CB        -7.3170  -13.4910   22.8860 C.3   274  ILE274      0.0252
     83  CG1       -8.4510  -14.4080   23.3520 C.3   274  ILE274      0.0019
     84  CG2       -6.6580  -12.7470   24.0490 C.3   274  ILE274      0.0019
     85  CD1       -7.9960  -15.7640   23.8120 C.3   274  ILE274      0.0001
     86  N        -10.9190  -10.6790   19.2730 N.3   277  TRP277     -0.1227
     87  CA       -11.7770  -11.8130   18.9420 C.3   277  TRP277      0.1737
     88  C        -13.0130  -11.8600   19.8400 C.2   277  TRP277      0.2595
     89  O        -14.1330  -12.0200   19.3540 O.2   277  TRP277     -0.2718
     90  CB       -10.9880  -13.1230   19.0400 C.3   277  TRP277      0.0564
     91  CG       -11.8050  -14.3490   18.7460 C.ar  277  TRP277      0.0003
     92  CD1      -12.1520  -14.8290   17.5130 C.ar  277  TRP277      0.0946
     93  CD2      -12.3730  -15.2520   19.7020 C.ar  277  TRP277      0.0152
     94  NE1      -12.9030  -15.9720   17.6430 N.ar  277  TRP277     -0.2442
     95  CE2      -13.0540  -16.2560   18.9750 C.ar  277  TRP277      0.0810
     96  CE3      -12.3750  -15.3100   21.1020 C.ar  277  TRP277      0.0012
     97  CZ2      -13.7310  -17.3070   19.6000 C.ar  277  TRP277      0.0191
     98  CZ3      -13.0470  -16.3550   21.7240 C.ar  277  TRP277      0.0001
     99  CH2      -13.7170  -17.3400   20.9700 C.ar  277  TRP277      0.0015
    100  N        -12.7980  -11.7130   21.1460 N.am  278  TYR278     -0.1976
    101  CA       -13.8790  -11.7360   22.1280 C.3   278  TYR278      0.1639
    102  C        -14.9570  -10.6990   21.8200 C.2   278  TYR278      0.2290
    103  O        -16.1500  -11.0120   21.8220 O.2   278  TYR278     -0.2864
    104  CB       -13.3280  -11.5250   23.5430 C.3   278  TYR278      0.0560
    105  CG       -13.1480  -12.8000   24.3400 C.ar  278  TYR278     -0.0198
    106  CD1      -14.2390  -13.4160   24.9540 C.ar  278  TYR278     -0.0009
    107  CD2      -11.8910  -13.3850   24.4920 C.ar  278  TYR278     -0.0009
    108  CE1      -14.0880  -14.5850   25.6890 C.ar  278  TYR278      0.0417
    109  CE2      -11.7290  -14.5580   25.2290 C.ar  278  TYR278      0.0417
    110  CZ       -12.8340  -15.1500   25.8230 C.ar  278  TYR278      0.1957
    111  OH       -12.6950  -16.3060   26.5530 O.3   278  TYR278     -0.2866
    112  N        -18.3310  -12.5350   21.0370 N.3   282  TYR282     -0.1241
    113  CA       -19.0930  -12.6050   22.2860 C.3   282  TYR282      0.1605
    114  C        -19.7390  -11.2650   22.6710 C.2   282  TYR282      0.2264
    115  O        -20.1560  -11.0850   23.8200 O.2   282  TYR282     -0.2867
    116  CB       -18.2000  -13.0850   23.4360 C.3   282  TYR282      0.0534
    117  CG       -17.9010  -14.5690   23.4640 C.ar  282  TYR282     -0.0201
    118  CD1      -18.8290  -15.4830   23.9690 C.ar  282  TYR282     -0.0009
    119  CD2      -16.6720  -15.0570   23.0180 C.ar  282  TYR282     -0.0009
    120  CE1      -18.5440  -16.8480   24.0110 C.ar  282  TYR282      0.0417
    121  CE2      -16.3790  -16.4180   23.0580 C.ar  282  TYR282      0.0417
    122  CZ       -17.3170  -17.3070   23.5540 C.ar  282  TYR282      0.1957
    123  OH       -17.0240  -18.6510   23.5900 O.3   282  TYR282     -0.2866
    124  N        -20.3770  -17.8540   30.0240 N.3   302  TYR302     -0.1241
    125  CA       -19.3860  -18.5830   30.8180 C.3   302  TYR302      0.1605
    126  C        -19.8670  -18.8570   32.2530 C.2   302  TYR302      0.2264
    127  O        -19.1320  -19.4500   33.0540 O.2   302  TYR302     -0.2867
    128  CB       -18.0420  -17.8340   30.8610 C.3   302  TYR302      0.0534
    129  CG       -17.1970  -17.8870   29.5970 C.ar  302  TYR302     -0.0201
    130  CD1      -17.2260  -18.9940   28.7430 C.ar  302  TYR302     -0.0009
    131  CD2      -16.3310  -16.8370   29.2800 C.ar  302  TYR302     -0.0009
    132  CE1      -16.4350  -19.0370   27.5920 C.ar  302  TYR302      0.0417
    133  CE2      -15.5340  -16.8710   28.1370 C.ar  302  TYR302      0.0417
    134  CZ       -15.5910  -17.9710   27.2970 C.ar  302  TYR302      0.1957
    135  OH       -14.8060  -18.0020   26.1660 O.3   302  TYR302     -0.2866
    136  N         -4.6610  -30.1550   24.4920 N.3   328  ASP328     -0.1239
    137  CA        -4.3100  -28.8000   24.0560 C.3   328  ASP328      0.1674
    138  C         -2.8040  -28.5150   24.0120 C.2   328  ASP328      0.2266
    139  O         -2.3780  -27.5060   23.4450 O.2   328  ASP328     -0.2867
    140  CB        -5.0300  -27.7530   24.9140 C.3   328  ASP328      0.1410
    141  CG        -6.5420  -27.7880   24.7400 C.2   328  ASP328      0.3668
    142  OD1       -7.0200  -28.3140   23.7130 O.co2 328  ASP328     -0.2456
    143  OD2       -7.2580  -27.2830   25.6300 O.co2 328  ASP328     -0.2456
@<TRIPOS>BOND
     1     1     2    1
     2     9     7   ar
     3     7     6    1
     4     7     8   ar
     5     6     5    1
     6     2     5    1
     7     2     3    1
     8    22    21    1
     9    22    23    1
    10    13    12    2
    11    21    18    1
    12    10     3   am
    13    10    11    1
    14     3     4    2
    15    17    18    1
    16    23    24    1
    17    12    11    1
    18    18    19    1
    19    11    14    1
    20    30    29    1
    21    19    25   am
    22    19    20    2
    23    25    26    1
    24    16    14    1
    25    92    94   ar
    26    92    91   ar
    27    14    15    1
    28    94    95   ar
    29    29    26    1
    30    26    27    1
    31    42    41    1
    32    91    90    1
    33    91    93   ar
    34    87    90    1
    35    87    86    1
    36    87    88    1
    37    95    97   ar
    38    95    93   ar
    39    41    39   ar
    40    41    40   ar
    41    89    88    2
    42    27    31   am
    43    27    28    2
    44    39    37   ar
    45    97    99   ar
    46    31    32    1
    47    93    96   ar
    48    40    38   ar
    49    88   100   am
    50    37    36   ar
    51    38    36   ar
    52    48    47    1
    53    36    35    1
    54    32    35    1
    55    32    33    1
    56    99    98   ar
    57   112   113    1
    58    96    98   ar
    59   100   101    1
    60    78    79    1
    61    43    33   am
    62    43    44    1
    63    47    44    1
    64    79    80    1
    65    79    82    1
    66   102   103    2
    67   102   101    1
    68    33    34    2
    69   101   104    1
    70   113   114    1
    71   113   116    1
    72    80    81    2
    73    44    45    1
    74   114   115    2
    75    82    83    1
    76    82    84    1
    77   119   121   ar
    78   119   117   ar
    79   121   122   ar
    80    83    85    1
    81   116   117    1
    82   139   138    2
    83   117   118   ar
    84   104   105    1
    85   122   123    1
    86   122   120   ar
    87   142   141   ar
    88    45    46    2
    89   118   120   ar
    90   138   137    1
    91   137   136    1
    92   137   140    1
    93   105   107   ar
    94   105   106   ar
    95   107   109   ar
    96   141   140    1
    97   141   143   ar
    98   106   108   ar
    99    55    53    1
   100   109   110   ar
   101   108   110   ar
   102   110   111    1
   103    49    50    1
   104    53    50    1
   105    53    54    1
   106   135   134    1
   107    65    63   ar
   108    65    64   ar
   109    63    61   ar
   110    50    51    1
   111   134   132   ar
   112   134   133   ar
   113   132   130   ar
   114    64    62   ar
   115    61    60    1
   116    61    62   ar
   117    56    51   am
   118    56    57    1
   119    77    76    1
   120    51    52    2
   121   133   131   ar
   122    60    57    1
   123   130   129   ar
   124    75    76   ar
   125    75    73   ar
   126    76    74   ar
   127    57    58    1
   128   131   129   ar
   129   129   128    1
   130    73    71   ar
   131    74    72   ar
   132    58    59    2
   133   124   125    1
   134    71    72   ar
   135    71    70    1
   136   125   128    1
   137   125   126    1
   138    70    67    1
   139   126   127    2
   140    67    66    1
   141    67    68    1
   142    69    68    2
