@<TRIPOS>MOLECULE
tmp/3c7cA00.pdb
 206 199 0 0 0
SMALL
GASTEIGER

@<TRIPOS>ATOM
      1  N        -15.0310  -41.8690   13.2530 N.3     8  GLY8       -0.1210
      2  CA       -15.2830  -41.8340   14.6870 C.3     8  GLY8        0.1956
      3  C        -16.6800  -42.2920   15.0290 C.2     8  GLY8        0.2612
      4  O        -17.5100  -42.5000   14.1390 O.2     8  GLY8       -0.2717
      5  N        -16.9330  -42.4480   16.3260 N.am    9  GLY9       -0.1942
      6  CA       -18.2520  -42.8380   16.8260 C.3     9  GLY9        0.2014
      7  C        -18.6280  -42.0880   18.0890 C.2     9  GLY9        0.2639
      8  O        -19.2710  -42.6470   18.9800 O.2     9  GLY9       -0.2714
      9  N        -18.2120  -40.8240   18.1690 N.am   10  GLY10      -0.1939
     10  CA       -18.4690  -39.9850   19.3380 C.3    10  GLY10       0.2014
     11  C        -19.7500  -39.1860   19.2180 C.2    10  GLY10       0.2639
     12  O        -20.6590  -39.5600   18.4740 O.2    10  GLY10      -0.2714
     13  N        -19.8240  -38.0860   19.9620 N.am   11  ASN11      -0.1958
     14  CA       -20.9600  -37.1720   19.8910 C.3    11  ASN11       0.1819
     15  C        -21.0460  -36.5330   18.5160 C.2    11  ASN11       0.2622
     16  O        -22.1080  -36.5290   17.8890 O.2    11  ASN11      -0.2715
     17  CB       -20.8500  -36.0830   20.9600 C.3    11  ASN11       0.1195
     18  CG       -20.8270  -36.6450   22.3670 C.2    11  ASN11       0.2630
     19  OD1      -21.7320  -37.3780   22.7760 O.2    11  ASN11      -0.2716
     20  ND2      -19.7890  -36.3020   23.1170 N.am   11  ASN11      -0.0877
     21  N        -19.9110  -36.0090   18.0540 N.am   12  GLY12      -0.1940
     22  CA       -19.8150  -35.3670   16.7500 C.3    12  GLY12       0.2014
     23  C        -20.1070  -36.3190   15.6100 C.2    12  GLY12       0.2638
     24  O        -20.8770  -35.9900   14.7090 O.2    12  GLY12      -0.2714
     25  N        -19.5000  -37.5010   15.6550 N.am   13  ALA13      -0.1977
     26  CA       -19.7000  -38.5190   14.6210 C.3    13  ALA13       0.1597
     27  C        -21.1580  -38.9650   14.5010 C.2    13  ALA13       0.2287
     28  O        -21.6390  -39.2080   13.3950 O.2    13  ALA13      -0.2864
     29  CB       -18.8050  -39.7070   14.8680 C.3    13  ALA13       0.0319
     30  N        -15.2390  -46.3680   12.1640 N.3    32  THR32      -0.1203
     31  CA       -14.6570  -46.2340   13.4990 C.3    32  THR32       0.1994
     32  C        -13.6600  -47.3540   13.7770 C.2    32  THR32       0.2618
     33  O        -13.9790  -48.5380   13.6380 O.2    32  THR32      -0.2717
     34  CB       -15.7230  -46.1280   14.6250 C.3    32  THR32       0.1784
     35  OG1      -15.1220  -46.4480   15.8860 O.3    32  THR32      -0.2211
     36  CG2      -16.8960  -47.0640   14.3780 C.3    32  THR32       0.0376
     37  N        -12.4500  -46.9600   14.1580 N.am   33  LEU33      -0.1965
     38  CA       -11.3650  -47.9040   14.3920 C.3    33  LEU33       0.1728
     39  C        -11.2220  -48.2570   15.8690 C.2    33  LEU33       0.2616
     40  O        -10.3280  -49.0190   16.2470 O.2    33  LEU33      -0.2715
     41  CB       -10.0460  -47.3420   13.8540 C.3    33  LEU33       0.0311
     42  CG        -9.9580  -46.9620   12.3720 C.3    33  LEU33       0.0022
     43  CD1       -8.6270  -46.2830   12.0950 C.3    33  LEU33       0.0001
     44  CD2      -10.1580  -48.1640   11.4480 C.3    33  LEU33       0.0001
     45  N        -12.1030  -47.7030   16.7000 N.am   34  PHE34      -0.1974
     46  CA       -12.0480  -47.9440   18.1370 C.3    34  PHE34       0.1639
     47  C        -12.5480  -49.3450   18.4470 C.2    34  PHE34       0.2290
     48  O        -13.7550  -49.5750   18.5670 O.2    34  PHE34      -0.2864
     49  CB       -12.8360  -46.8800   18.9140 C.3    34  PHE34       0.0560
     50  CG       -12.6230  -46.9260   20.4070 C.ar   34  PHE34      -0.0200
     51  CD1      -11.3710  -47.2160   20.9440 C.ar   34  PHE34      -0.0042
     52  CD2      -13.6700  -46.6560   21.2770 C.ar   34  PHE34      -0.0042
     53  CE1      -11.1730  -47.2540   22.3200 C.ar   34  PHE34      -0.0003
     54  CE2      -13.4810  -46.6910   22.6580 C.ar   34  PHE34      -0.0003
     55  CZ       -12.2300  -46.9890   23.1780 C.ar   34  PHE34      -0.0000
     56  N        -16.2140  -50.9830   17.8870 N.3    37  GLU37      -0.1245
     57  CA       -17.2790  -49.9970   18.0710 C.3    37  GLU37       0.1567
     58  C        -18.2870  -50.0140   16.9230 C.2    37  GLU37       0.2260
     59  O        -19.4960  -49.9080   17.1510 O.2    37  GLU37      -0.2867
     60  CB       -16.6860  -48.5950   18.2280 C.3    37  GLU37       0.0388
     61  CG       -17.6720  -47.5400   18.6940 C.3    37  GLU37       0.1160
     62  CD       -17.0090  -46.2060   18.9510 C.2    37  GLU37       0.3649
     63  OE1      -16.4680  -45.6180   17.9910 O.co2  37  GLU37      -0.2457
     64  OE2      -17.0340  -45.7430   20.1120 O.co2  37  GLU37      -0.2457
     65  N        -14.1440  -36.6690   12.7290 N.3    88  THR88      -0.1203
     66  CA       -14.7430  -36.0580   13.9170 C.3    88  THR88       0.1994
     67  C        -14.4400  -36.8770   15.1730 C.2    88  THR88       0.2618
     68  O        -15.2650  -37.6770   15.6290 O.2    88  THR88      -0.2717
     69  CB       -16.2650  -35.8450   13.7500 C.3    88  THR88       0.1784
     70  OG1      -16.5150  -35.1570   12.5210 O.3    88  THR88      -0.2211
     71  CG2      -16.8200  -35.0130   14.8920 C.3    88  THR88       0.0376
     72  N        -13.2400  -36.6750   15.7110 N.am   89  VAL89      -0.1966
     73  CA       -12.7640  -37.3870   16.9010 C.3    89  VAL89       0.1712
     74  C        -11.7290  -36.5370   17.6300 C.2    89  VAL89       0.2458
     75  O        -11.2000  -35.5860   17.0480 O.2    89  VAL89      -0.2730
     76  CB       -12.1180  -38.7520   16.5530 C.3    89  VAL89       0.0289
     77  CG1      -13.1530  -39.8500   16.5700 C.3    89  VAL89       0.0023
     78  CG2      -11.3860  -38.7000   15.2140 C.3    89  VAL89       0.0023
     79  N        -11.4440  -36.8610   18.9090 N.am   90  PRO90      -0.2727
     80  CA       -10.2990  -36.2230   19.5510 C.3    90  PRO90       0.1402
     81  C         -9.0190  -36.5180   18.7640 C.2    90  PRO90       0.2269
     82  O         -8.9110  -37.5710   18.1220 O.2    90  PRO90      -0.2865
     83  CB       -10.2590  -36.8780   20.9310 C.3    90  PRO90       0.0296
     84  CG       -11.6470  -37.3490   21.1670 C.3    90  PRO90       0.0237
     85  CD       -12.1430  -37.7780   19.8280 C.3    90  PRO90       0.0939
     86  N         -5.8130  -37.3110   19.2700 N.3    92  PHE92      -0.1227
     87  CA        -4.9460  -38.4730   19.4860 C.3    92  PHE92       0.1736
     88  C         -5.3750  -39.6740   18.6380 C.2    92  PHE92       0.2595
     89  O         -4.6100  -40.6250   18.4650 O.2    92  PHE92      -0.2718
     90  CB        -4.8570  -38.8530   20.9760 C.3    92  PHE92       0.0547
     91  CG        -6.1570  -39.3320   21.5730 C.ar   92  PHE92      -0.0202
     92  CD1       -6.9410  -38.4730   22.3380 C.ar   92  PHE92      -0.0042
     93  CD2       -6.5870  -40.6450   21.3880 C.ar   92  PHE92      -0.0042
     94  CE1       -8.1420  -38.9100   22.9010 C.ar   92  PHE92      -0.0003
     95  CE2       -7.7870  -41.0900   21.9410 C.ar   92  PHE92      -0.0003
     96  CZ        -8.5670  -40.2200   22.6990 C.ar   92  PHE92      -0.0000
     97  N         -6.5960  -39.6130   18.1090 N.am   93  ALA93      -0.1980
     98  CA        -7.1520  -40.6940   17.3000 C.3    93  ALA93       0.1597
     99  C         -6.9970  -40.4840   15.7850 C.2    93  ALA93       0.2287
    100  O         -7.3290  -41.3760   15.0030 O.2    93  ALA93      -0.2864
    101  CB        -8.6170  -40.9300   17.6690 C.3    93  ALA93       0.0319
    102  N         -6.5670  -43.0260   11.7290 N.3    97  TYR97      -0.1241
    103  CA        -7.4560  -42.8860   10.5760 C.3    97  TYR97       0.1605
    104  C         -6.7170  -42.6040    9.2680 C.2    97  TYR97       0.2264
    105  O         -7.1050  -43.1210    8.2180 O.2    97  TYR97      -0.2867
    106  CB        -8.5750  -41.8670   10.8430 C.3    97  TYR97       0.0534
    107  CG        -9.6170  -42.3900   11.8120 C.ar   97  TYR97      -0.0201
    108  CD1      -10.6180  -43.2650   11.3880 C.ar   97  TYR97      -0.0009
    109  CD2       -9.5890  -42.0290   13.1570 C.ar   97  TYR97      -0.0009
    110  CE1      -11.5730  -43.7600   12.2790 C.ar   97  TYR97       0.0417
    111  CE2      -10.5360  -42.5190   14.0560 C.ar   97  TYR97       0.0417
    112  CZ       -11.5230  -43.3830   13.6090 C.ar   97  TYR97       0.1957
    113  OH       -12.4550  -43.8700   14.4950 O.3    97  TYR97      -0.2866
    114  N        -13.3270  -31.0940   14.5370 N.3   115  PRO115     -0.2116
    115  CA       -12.2930  -30.0950   14.2780 C.3   115  PRO115      0.1372
    116  C        -10.9030  -30.7040   14.0580 C.2   115  PRO115      0.2244
    117  O        -10.6360  -31.8330   14.4840 O.2   115  PRO115     -0.2868
    118  CB       -12.3050  -29.2540   15.5550 C.3   115  PRO115      0.0268
    119  CG       -12.7450  -30.1900   16.6270 C.3   115  PRO115      0.0207
    120  CD       -13.4930  -31.3330   15.9830 C.3   115  PRO115      0.0892
    121  N         -7.8830  -29.4060   15.1690 N.3   117  GLN117     -0.1245
    122  CA        -6.8900  -29.0740   16.2000 C.3   117  GLN117      0.1566
    123  C         -5.6530  -28.4770   15.5110 C.2   117  GLN117      0.2260
    124  O         -5.7910  -27.7060   14.5540 O.2   117  GLN117     -0.2867
    125  CB        -6.5380  -30.2850   17.0780 C.3   117  GLN117      0.0367
    126  CG        -7.7390  -30.9960   17.7210 C.3   117  GLN117      0.0905
    127  CD        -8.0830  -30.4670   19.1010 C.2   117  GLN117      0.2608
    128  OE1       -7.7810  -31.1030   20.1140 O.2   117  GLN117     -0.2717
    129  NE2       -8.7190  -29.2990   19.1490 N.am  117  GLN117     -0.0878
    130  N        -13.4480  -25.4730   15.2890 N.3   142  THR142     -0.1203
    131  CA       -14.0570  -26.2270   16.3870 C.3   142  THR142      0.1994
    132  C        -15.2410  -27.0360   15.8400 C.2   142  THR142      0.2617
    133  O        -15.5580  -26.9430   14.6500 O.2   142  THR142     -0.2717
    134  CB       -14.4880  -25.2990   17.5650 C.3   142  THR142      0.1784
    135  OG1      -14.7360  -26.0830   18.7380 O.3   142  THR142     -0.2211
    136  CG2      -15.7330  -24.4780   17.2140 C.3   142  THR142      0.0376
    137  N        -15.8800  -27.8280   16.7000 N.am  143  LEU143     -0.1979
    138  CA       -17.0550  -28.6150   16.3170 C.3   143  LEU143      0.1596
    139  C        -18.2780  -27.7090   16.0940 C.2   143  LEU143      0.2287
    140  O        -18.5410  -26.8200   16.9060 O.2   143  LEU143     -0.2864
    141  CB       -17.3440  -29.6780   17.3830 C.3   143  LEU143      0.0297
    142  CG       -18.2780  -30.8480   17.0660 C.3   143  LEU143      0.0022
    143  CD1      -17.6610  -31.7710   16.0370 C.3   143  LEU143      0.0001
    144  CD2      -18.6030  -31.6180   18.3300 C.3   143  LEU143      0.0001
    145  N        -21.4440  -28.0900   16.4290 N.3   145  TRP145     -0.1227
    146  CA       -22.5060  -28.1430   17.4260 C.3   145  TRP145      0.1737
    147  C        -21.9600  -28.4640   18.8070 C.2   145  TRP145      0.2595
    148  O        -20.9130  -29.0990   18.9400 O.2   145  TRP145     -0.2718
    149  CB       -23.5500  -29.2040   17.0640 C.3   145  TRP145      0.0564
    150  CG       -23.7040  -29.4840   15.5950 C.ar  145  TRP145      0.0003
    151  CD1      -24.5980  -28.9100   14.7370 C.ar  145  TRP145      0.0946
    152  CD2      -22.9520  -30.4280   14.8200 C.ar  145  TRP145      0.0152
    153  NE1      -24.4440  -29.4310   13.4750 N.ar  145  TRP145     -0.2442
    154  CE2      -23.4400  -30.3640   13.4980 C.ar  145  TRP145      0.0810
    155  CE3      -21.9080  -31.3160   15.1150 C.ar  145  TRP145      0.0012
    156  CZ2      -22.9210  -31.1580   12.4690 C.ar  145  TRP145      0.0191
    157  CZ3      -21.3920  -32.1040   14.0920 C.ar  145  TRP145      0.0001
    158  CH2      -21.9000  -32.0190   12.7860 C.ar  145  TRP145      0.0015
    159  N        -22.6730  -28.0100   19.8320 N.am  146  ALA146     -0.1966
    160  CA       -22.5040  -28.5520   21.1700 C.3   146  ALA146      0.1728
    161  C        -23.4880  -29.7160   21.2710 C.2   146  ALA146      0.2616
    162  O        -24.7060  -29.5100   21.2700 O.2   146  ALA146     -0.2715
    163  CB       -22.7850  -27.5020   22.2220 C.3   146  ALA146      0.0334
    164  N        -22.9610  -30.9380   21.3190 N.am  147  CYS147     -0.1968
    165  CA       -23.8020  -32.1340   21.2350 C.3   147  CYS147      0.1712
    166  C        -23.3990  -33.2460   22.2010 C.2   147  CYS147      0.2296
    167  O        -22.2250  -33.3880   22.5530 O.2   147  CYS147     -0.2864
    168  CB       -23.8360  -32.6670   19.7970 C.3   147  CYS147      0.0983
    169  SG       -22.2160  -33.0470   19.1010 S.3   147  CYS147     -0.0798
    170  N        -24.4530  -37.5480   23.0950 N.3   149  ILE149     -0.1245
    171  CA       -25.1820  -38.7900   22.8370 C.3   149  ILE149      0.1561
    172  C        -26.2280  -39.0270   23.9380 C.2   149  ILE149      0.2260
    173  O        -25.9310  -38.8970   25.1300 O.2   149  ILE149     -0.2867
    174  CB       -24.2110  -40.0110   22.7200 C.3   149  ILE149      0.0252
    175  CG1      -23.3630  -39.9050   21.4480 C.3   149  ILE149      0.0019
    176  CG2      -24.9740  -41.3400   22.7380 C.3   149  ILE149      0.0019
    177  CD1      -22.1530  -40.8230   21.4180 C.3   149  ILE149      0.0001
    178  N        -23.5610  -23.4290   16.2540 N.3   162  LYS162     -0.1245
    179  CA       -22.8630  -22.1800   15.9520 C.3   162  LYS162      0.1561
    180  C        -23.5170  -21.4990   14.7530 C.2   162  LYS162      0.2260
    181  O        -24.0580  -22.1690   13.8710 O.2   162  LYS162     -0.2867
    182  CB       -21.3940  -22.4620   15.6280 C.3   162  LYS162      0.0271
    183  CG       -20.5890  -23.0870   16.7530 C.3   162  LYS162      0.0035
    184  CD       -19.8240  -22.0320   17.5210 C.3   162  LYS162      0.0206
    185  CE       -18.8630  -22.6620   18.5070 C.3   162  LYS162      0.1093
    186  NZ       -17.8770  -21.6620   19.0030 N.3   162  LYS162     -0.1314
    187  N         -8.8460  -33.4800   29.3580 N.3   323  ARG323     -0.1245
    188  CA        -8.4060  -33.2250   27.9940 C.3   323  ARG323      0.1563
    189  C         -8.0910  -31.7450   27.7640 C.2   323  ARG323      0.2260
    190  O         -7.8470  -31.3150   26.6320 O.2   323  ARG323     -0.2867
    191  CB        -9.4310  -33.7740   26.9930 C.3   323  ARG323      0.0307
    192  CG        -9.5760  -35.2880   27.1030 C.3   323  ARG323      0.0489
    193  CD       -10.3210  -35.9080   25.9430 C.3   323  ARG323      0.2205
    194  NE       -10.2720  -37.3680   26.0320 N.pl3 323  ARG323     -0.0865
    195  CZ       -11.1210  -38.1940   25.4260 C.cat 323  ARG323      0.5346
    196  NH1      -12.1080  -37.7160   24.6730 N.pl3 323  ARG323      0.1354
    197  NH2      -10.9840  -39.5060   25.5760 N.pl3 323  ARG323      0.1354
    198  N         -4.6510  -32.7810   25.6320 N.3   327  GLU327     -0.1245
    199  CA        -5.0000  -32.5480   24.2300 C.3   327  GLU327      0.1567
    200  C         -4.4510  -31.2230   23.7250 C.2   327  GLU327      0.2260
    201  O         -3.8340  -31.1760   22.6650 O.2   327  GLU327     -0.2867
    202  CB        -6.5190  -32.6130   24.0120 C.3   327  GLU327      0.0388
    203  CG        -7.0660  -34.0180   23.7580 C.3   327  GLU327      0.1160
    204  CD        -7.0520  -34.4090   22.2830 C.2   327  GLU327      0.3649
    205  OE1       -7.9050  -33.8960   21.5200 O.co2 327  GLU327     -0.2457
    206  OE2       -6.1990  -35.2420   21.8940 O.co2 327  GLU327     -0.2457
@<TRIPOS>BOND
     1   105   104    2
     2   104   103    1
     3   103   106    1
     4   103   102    1
     5   106   107    1
     6   108   107   ar
     7   108   110   ar
     8    44    42    1
     9   107   109   ar
    10    43    42    1
    11    30    31    1
    12   110   112   ar
    13    42    41    1
    14   156   158   ar
    15   156   154   ar
    16    70    69    1
    17    65    66    1
    18   158   157   ar
    19   109   111   ar
    20     1     2    1
    21    28    27    2
    22   153   154   ar
    23   153   151   ar
    24   154   152   ar
    25    31    32    1
    26    31    34    1
    27   112   111   ar
    28   112   113    1
    29    33    32    2
    30    69    66    1
    31    69    71    1
    32    32    37   am
    33    41    38    1
    34   181   180    2
    35    66    67    1
    36   116   115    1
    37   116   117    2
    38   157   155   ar
    39     4     3    2
    40    37    38    1
    41   115   114    1
    42   115   118    1
    43    36    34    1
    44    38    39    1
    45    27    26    1
    46   114   120    1
    47   124   123    2
    48    26    29    1
    49    26    25    1
    50    34    35    1
    51   133   132    2
    52     2     3    1
    53    24    23    2
    54   151   150   ar
    55   180   179    1
    56   152   155   ar
    57   152   150   ar
    58   100    99    2
    59     3     5   am
    60   121   122    1
    61    67    68    2
    62    67    72   am
    63    78    76    1
    64   130   131    1
    65   123   122    1
    66   118   119    1
    67   150   149    1
    68    23    25   am
    69    23    22    1
    70   182   179    1
    71   182   183    1
    72    72    73    1
    73    99    98    1
    74   132   131    1
    75   132   137   am
    76    39    40    2
    77    39    45   am
    78   179   178    1
    79   120   119    1
    80   143   142    1
    81   139   138    1
    82   139   140    2
    83   122   125    1
    84   138   137    1
    85   138   141    1
    86     5     6    1
    87   131   134    1
    88   145   146    1
    89    76    77    1
    90    76    73    1
    91    45    46    1
    92    22    21    1
    93   183   184    1
    94     6     7    1
    95    73    74    1
    96    58    59    2
    97    58    57    1
    98    75    74    2
    99   149   146    1
   100   142   141    1
   101   142   144    1
   102   125   126    1
   103   136   134    1
   104    98   101    1
   105    98    97    1
   106   146   147    1
   107   184   185    1
   108   134   135    1
   109    74    79   am
   110   126   127    1
   111    56    57    1
   112    16    15    2
   113    63    62   ar
   114    21    15   am
   115    57    60    1
   116     7     9   am
   117     7     8    2
   118    97    88   am
   119    82    81    2
   120    46    47    1
   121    46    49    1
   122     9    10    1
   123    60    61    1
   124    47    48    2
   125    89    88    2
   126    12    11    2
   127   185   186    1
   128    15    14    1
   129    88    87    1
   130    61    62    1
   131    81    80    1
   132   147   148    2
   133   147   159   am
   134    79    80    1
   135    79    85    1
   136    49    50    1
   137    62    64   ar
   138   169   168    1
   139   127   129   am
   140   127   128    2
   141    11    10    1
   142    11    13   am
   143    86    87    1
   144    87    90    1
   145    80    83    1
   146   168   165    1
   147    85    84    1
   148   159   160    1
   149    14    13    1
   150    14    17    1
   151    50    51   ar
   152    50    52   ar
   153    83    84    1
   154    51    53   ar
   155    17    18    1
   156    90    91    1
   157   160   161    1
   158   160   163    1
   159   165   164    1
   160   165   166    1
   161   162   161    2
   162   161   164   am
   163    52    54   ar
   164    93    91   ar
   165    93    95   ar
   166   177   175    1
   167   175   174    1
   168   205   204   ar
   169    91    92   ar
   170   206   204   ar
   171    95    96   ar
   172   166   167    2
   173   204   203    1
   174    53    55   ar
   175    92    94   ar
   176    18    19    2
   177    18    20   am
   178    54    55   ar
   179   201   200    2
   180    96    94   ar
   181   174   176    1
   182   174   171    1
   183   171   170    1
   184   171   172    1
   185   200   199    1
   186   203   202    1
   187   172   173    2
   188   202   199    1
   189   199   198    1
   190   196   195    1
   191   195   197    1
   192   195   194    2
   193   193   194    1
   194   193   192    1
   195   190   189    2
   196   191   192    1
   197   191   188    1
   198   189   188    1
   199   188   187    1
