@<TRIPOS>MOLECULE
tmp/3c7fA00.pdb
 107 107 0 0 0
SMALL
GASTEIGER

@<TRIPOS>ATOM
      1  N         46.4660    1.4110   16.1480 N.3    56  PHE56      -0.1241
      2  CA        46.3450    2.1380   14.8730 C.3    56  PHE56       0.1605
      3  C         47.4350    1.7760   13.8440 C.2    56  PHE56       0.2264
      4  O         47.5470    2.4480   12.8160 O.2    56  PHE56      -0.2867
      5  CB        46.2650    3.6710   15.0630 C.3    56  PHE56       0.0534
      6  CG        45.2600    4.1250   16.0950 C.ar   56  PHE56      -0.0203
      7  CD1       44.0670    3.4110   16.3320 C.ar   56  PHE56      -0.0042
      8  CD2       45.4940    5.2960   16.8240 C.ar   56  PHE56      -0.0042
      9  CE1       43.1460    3.8650   17.2950 C.ar   56  PHE56      -0.0003
     10  CE2       44.5910    5.7460   17.7810 C.ar   56  PHE56      -0.0003
     11  CZ        43.4120    5.0350   18.0190 C.ar   56  PHE56      -0.0000
     12  N         44.3840    8.3810    8.5010 N.3   101  TRP101     -0.1241
     13  CA        43.3370    8.2850    9.5200 C.3   101  TRP101      0.1605
     14  C         42.1460    9.1540    9.1890 C.2   101  TRP101      0.2264
     15  O         42.3010   10.2570    8.6550 O.2   101  TRP101     -0.2867
     16  CB        43.8630    8.7800   10.8670 C.3   101  TRP101      0.0550
     17  CG        44.9790    8.0110   11.4740 C.ar  101  TRP101      0.0003
     18  CD1       45.6810    6.9620   10.9320 C.ar  101  TRP101      0.0946
     19  CD2       45.5570    8.2570   12.7640 C.ar  101  TRP101      0.0152
     20  NE1       46.6520    6.5320   11.8240 N.ar  101  TRP101     -0.2442
     21  CE2       46.5880    7.3080   12.9540 C.ar  101  TRP101      0.0810
     22  CE3       45.2820    9.1770   13.7890 C.ar  101  TRP101      0.0012
     23  CZ2       47.3540    7.2630   14.1190 C.ar  101  TRP101      0.0191
     24  CZ3       46.0420    9.1280   14.9620 C.ar  101  TRP101      0.0001
     25  CH2       47.0700    8.1750   15.1100 C.ar  101  TRP101      0.0015
     26  N         48.4070   10.4960   10.6880 N.3   123  SER123     -0.1202
     27  CA        48.4230   10.4680   12.1560 C.3   123  SER123      0.2020
     28  C         48.0570   11.8600   12.7040 C.2   123  SER123      0.2619
     29  O         47.1760   12.5120   12.1530 O.2   123  SER123     -0.2717
     30  CB        49.7670    9.9460   12.6810 C.3   123  SER123      0.2103
     31  OG        50.0370    8.6450   12.1800 O.3   123  SER123     -0.2182
     32  N         48.7250   12.3310   13.7550 N.am  124  GLY124     -0.1956
     33  CA        48.3710   13.6210   14.3530 C.3   124  GLY124      0.1869
     34  C         49.1350   14.8070   13.8010 C.2   124  GLY124      0.2309
     35  O         49.1250   15.8940   14.3950 O.2   124  GLY124     -0.2863
     36  N         46.6770   17.9250   18.2440 N.3   160  TRP160     -0.1241
     37  CA        46.5910   16.8460   17.2620 C.3   160  TRP160      0.1605
     38  C         45.9990   17.3960   15.9870 C.2   160  TRP160      0.2264
     39  O         44.7920   17.6670   15.9380 O.2   160  TRP160     -0.2867
     40  CB        45.7030   15.7160   17.7820 C.3   160  TRP160      0.0550
     41  CG        46.2470   14.9950   18.9690 C.ar  160  TRP160      0.0003
     42  CD1       47.5630   14.8550   19.3180 C.ar  160  TRP160      0.0946
     43  CD2       45.4950   14.2470   19.9350 C.ar  160  TRP160      0.0152
     44  NE1       47.6710   14.0960   20.4560 N.ar  160  TRP160     -0.2442
     45  CE2       46.4180   13.7090   20.8550 C.ar  160  TRP160      0.0810
     46  CE3       44.1290   14.0050   20.1230 C.ar  160  TRP160      0.0012
     47  CZ2       46.0180   12.9240   21.9440 C.ar  160  TRP160      0.0191
     48  CZ3       43.7320   13.2280   21.1930 C.ar  160  TRP160      0.0001
     49  CH2       44.6750   12.6950   22.0940 C.ar  160  TRP160      0.0015
     50  N         44.5640   16.6860   13.1500 N.3   162  PHE162     -0.1241
     51  CA        43.9550   15.5180   12.5150 C.3   162  PHE162      0.1605
     52  C         42.4230   15.6140   12.4290 C.2   162  PHE162      0.2264
     53  O         41.8550   16.7060   12.5470 O.2   162  PHE162     -0.2867
     54  CB        44.4750   14.2260   13.1950 C.3   162  PHE162      0.0534
     55  CG        43.8840   13.9130   14.5750 C.ar  162  PHE162     -0.0203
     56  CD1       44.2350   12.7060   15.1920 C.ar  162  PHE162     -0.0042
     57  CD2       43.0040   14.7730   15.2440 C.ar  162  PHE162     -0.0042
     58  CE1       43.7240   12.3590   16.4430 C.ar  162  PHE162     -0.0003
     59  CE2       42.4830   14.4260   16.4990 C.ar  162  PHE162     -0.0003
     60  CZ        42.8340   13.2230   17.0930 C.ar  162  PHE162     -0.0000
     61  N         37.8260   17.5720   21.9560 N.3   224  PHE224     -0.1227
     62  CA        38.7980   16.4670   21.9090 C.3   224  PHE224      0.1736
     63  C         39.2490   16.1490   20.4850 C.2   224  PHE224      0.2595
     64  O         40.4400   16.1900   20.1840 O.2   224  PHE224     -0.2718
     65  CB        38.2430   15.2270   22.6030 C.3   224  PHE224      0.0547
     66  CG        39.2830   14.1830   22.9310 C.ar  224  PHE224     -0.0202
     67  CD1       40.5150   14.5450   23.4860 C.ar  224  PHE224     -0.0042
     68  CD2       39.0180   12.8360   22.6890 C.ar  224  PHE224     -0.0042
     69  CE1       41.4760   13.5740   23.7850 C.ar  224  PHE224     -0.0003
     70  CE2       39.9860   11.8640   22.9840 C.ar  224  PHE224     -0.0003
     71  CZ        41.2040   12.2370   23.5360 C.ar  224  PHE224     -0.0000
     72  N         38.3010   15.8140   19.6160 N.am  225  GLU225     -0.1979
     73  CA        38.6280   15.3550   18.2550 C.3   225  GLU225      0.1602
     74  C         37.3380   15.2430   17.4590 C.2   225  GLU225      0.2287
     75  O         36.3240   15.7630   17.8880 O.2   225  GLU225     -0.2864
     76  CB        39.3690   13.9990   18.3110 C.3   225  GLU225      0.0415
     77  CG        38.5900   12.8890   19.0460 C.3   225  GLU225      0.1163
     78  CD        39.3880   11.5860   19.1880 C.2   225  GLU225      0.3649
     79  OE1       40.4570   11.4950   18.5700 O.co2 225  GLU225     -0.2457
     80  OE2       38.9620   10.6750   19.9260 O.co2 225  GLU225     -0.2457
     81  N         37.5620   13.4690   27.6510 N.3   244  PHE244     -0.1241
     82  CA        37.2820   12.5280   28.7290 C.3   244  PHE244      0.1605
     83  C         37.8350   12.9740   30.0920 C.2   244  PHE244      0.2264
     84  O         37.5260   12.3580   31.1130 O.2   244  PHE244     -0.2867
     85  CB        37.8440   11.1330   28.3890 C.3   244  PHE244      0.0534
     86  CG        37.2140   10.4870   27.1760 C.ar  244  PHE244     -0.0203
     87  CD1       36.1870    9.5510   27.3380 C.ar  244  PHE244     -0.0042
     88  CD2       37.6430   10.8050   25.8880 C.ar  244  PHE244     -0.0042
     89  CE1       35.6050    8.9340   26.2350 C.ar  244  PHE244     -0.0003
     90  CE2       37.0370   10.2080   24.7620 C.ar  244  PHE244     -0.0003
     91  CZ        36.0280    9.2730   24.9390 C.ar  244  PHE244     -0.0000
     92  N         33.7410    1.0880   26.3340 N.3   286  GLY286     -0.1210
     93  CA        33.9740    2.4710   25.9680 C.3   286  GLY286      0.1956
     94  C         35.1400    2.5640   25.0140 C.2   286  GLY286      0.2612
     95  O         35.8240    1.5670   24.7280 O.2   286  GLY286     -0.2717
     96  N         35.4000    3.7800   24.5620 N.am  287  GLY287     -0.1942
     97  CA        36.4480    4.0430   23.5910 C.3   287  GLY287      0.2014
     98  C         36.1920    5.3720   22.9260 C.2   287  GLY287      0.2638
     99  O         35.3910    6.1780   23.4120 O.2   287  GLY287     -0.2714
    100  N         36.8720    5.6070   21.8100 N.am  288  ASN288     -0.1972
    101  CA        36.6560    6.8460   21.0870 C.3   288  ASN288      0.1688
    102  C         35.3300    6.8360   20.3200 C.2   288  ASN288      0.2292
    103  O         34.7470    5.7860   20.0450 O.2   288  ASN288     -0.2864
    104  CB        37.8680    7.2440   20.2130 C.3   288  ASN288      0.1181
    105  CG        38.3540    6.1270   19.3110 C.2   288  ASN288      0.2629
    106  OD1       37.5740    5.4680   18.6310 O.2   288  ASN288     -0.2716
    107  ND2       39.6680    5.9360   19.2740 N.am  288  ASN288     -0.0877
@<TRIPOS>BOND
     1    12    13    1
     2    15    14    2
     3    14    13    1
     4    13    16    1
     5    26    27    1
     6    16    17    1
     7    18    17   ar
     8    18    20   ar
     9    17    19   ar
    10    20    21   ar
    11    29    28    2
    12    27    30    1
    13    27    28    1
    14    31    30    1
    15    52    51    1
    16    52    53    2
    17    51    50    1
    18    51    54    1
    19    28    32   am
    20    19    21   ar
    21    19    22   ar
    22     4     3    2
    23    21    23   ar
    24    54    55    1
    25    32    33    1
    26    22    24   ar
    27    34    33    1
    28    34    35    2
    29     3     2    1
    30    23    25   ar
    31    55    56   ar
    32    55    57   ar
    33     2     5    1
    34     2     1    1
    35    24    25   ar
    36     5     6    1
    37    56    58   ar
    38    57    59   ar
    39    39    38    2
    40    38    37    1
    41     6     7   ar
    42     6     8   ar
    43     7     9   ar
    44    58    60   ar
    45    59    60   ar
    46     8    10   ar
    47    37    40    1
    48    37    36    1
    49     9    11   ar
    50    74    75    2
    51    74    73    1
    52    10    11   ar
    53    40    41    1
    54    73    76    1
    55    73    72    1
    56    76    77    1
    57    79    78   ar
    58   106   105    2
    59    41    42   ar
    60    41    43   ar
    61    77    78    1
    62    78    80   ar
    63   107   105   am
    64   105   104    1
    65    42    44   ar
    66    72    63   am
    67    43    46   ar
    68    43    45   ar
    69   103   102    2
    70    46    48   ar
    71    64    63    2
    72   104   101    1
    73   102   101    1
    74    44    45   ar
    75    63    62    1
    76    45    47   ar
    77   101   100    1
    78    48    49   ar
    79   100    98   am
    80    62    61    1
    81    62    65    1
    82    47    49   ar
    83    65    66    1
    84    68    66   ar
    85    68    70   ar
    86    98    99    2
    87    98    97    1
    88    66    67   ar
    89    70    71   ar
    90    67    69   ar
    91    71    69   ar
    92    97    96    1
    93    96    94   am
    94    95    94    2
    95    90    91   ar
    96    90    88   ar
    97    91    89   ar
    98    94    93    1
    99    88    86   ar
   100    93    92    1
   101    89    87   ar
   102    86    87   ar
   103    86    85    1
   104    81    82    1
   105    85    82    1
   106    82    83    1
   107    83    84    2
