@<TRIPOS>MOLECULE
tmp/3c7iA00.pdb
 143 139 0 0 0
SMALL
GASTEIGER

@<TRIPOS>ATOM
      1  N        -13.6450    4.2530   -9.0130 N.3    13  ARG13      -0.1245
      2  CA       -14.3110    4.9360   -7.9160 C.3    13  ARG13       0.1563
      3  C        -15.8210    4.7940   -8.1210 C.2    13  ARG13       0.2260
      4  O        -16.5690    4.5530   -7.1720 O.2    13  ARG13      -0.2867
      5  CB       -13.9100    6.4100   -7.9310 C.3    13  ARG13       0.0307
      6  CG       -14.7240    7.3430   -7.0570 C.3    13  ARG13       0.0489
      7  CD       -14.2140    8.7610   -7.2620 C.3    13  ARG13       0.2205
      8  NE       -15.0200    9.7670   -6.5810 N.pl3  13  ARG13      -0.0865
      9  CZ       -14.5980   10.4790   -5.5410 C.cat  13  ARG13       0.5346
     10  NH1      -13.3750   10.2940   -5.0560 N.pl3  13  ARG13       0.1354
     11  NH2      -15.3950   11.3870   -4.9950 N.pl3  13  ARG13       0.1354
     12  N         -9.9970    0.3070   -1.8810 N.3    32  ARG32      -0.1245
     13  CA        -9.6490    0.1220   -3.2780 C.3    32  ARG32       0.1563
     14  C         -8.3370    0.8290   -3.5630 C.2    32  ARG32       0.2260
     15  O         -7.8940    1.6730   -2.7840 O.2    32  ARG32      -0.2867
     16  CB       -10.7550    0.6770   -4.1840 C.3    32  ARG32       0.0307
     17  CG       -11.0660    2.1490   -3.9680 C.3    32  ARG32       0.0489
     18  CD       -12.2810    2.5770   -4.7710 C.3    32  ARG32       0.2205
     19  NE       -12.6980    3.9240   -4.3990 N.pl3  32  ARG32      -0.0865
     20  CZ       -12.1350    5.0470   -4.8360 C.cat  32  ARG32       0.5346
     21  NH1      -11.1180    5.0170   -5.6900 N.pl3  32  ARG32       0.1354
     22  NH2      -12.5910    6.2100   -4.3930 N.pl3  32  ARG32       0.1354
     23  N         -6.4930    3.4070   -5.6390 N.3    34  SER34      -0.1202
     24  CA        -6.8360    4.5870   -6.4220 C.3    34  SER34       0.2020
     25  C         -6.3330    4.5340   -7.8470 C.2    34  SER34       0.2619
     26  O         -5.2250    4.0640   -8.1110 O.2    34  SER34      -0.2717
     27  CB        -6.2890    5.8470   -5.7460 C.3    34  SER34       0.2103
     28  OG        -6.6490    7.0180   -6.4700 O.3    34  SER34      -0.2182
     29  N         -7.1640    5.0140   -8.7650 N.am   35  GLU35      -0.1965
     30  CA        -6.7930    5.0590  -10.1660 C.3    35  GLU35       0.1733
     31  C         -6.2160    6.4310  -10.4820 C.2    35  GLU35       0.2617
     32  O         -5.3590    6.5560  -11.3560 O.2    35  GLU35      -0.2715
     33  CB        -8.0020    4.7800  -11.0590 C.3    35  GLU35       0.0429
     34  CG        -8.4380    3.3290  -11.0350 C.3    35  GLU35       0.1163
     35  CD        -9.4830    3.0110  -12.0920 C.2    35  GLU35       0.3649
     36  OE1       -9.4090    1.9170  -12.6780 O.co2  35  GLU35      -0.2457
     37  OE2      -10.3780    3.8470  -12.3240 O.co2  35  GLU35      -0.2457
     38  N         -6.6780    7.4560   -9.7610 N.am   36  SER36      -0.1950
     39  CA        -6.1920    8.8200   -9.9780 C.3    36  SER36       0.1924
     40  C         -4.8540    9.0330   -9.2870 C.2    36  SER36       0.2314
     41  O         -4.0870    9.9180   -9.6710 O.2    36  SER36      -0.2863
     42  CB        -7.2090    9.8590   -9.4720 C.3    36  SER36       0.2116
     43  OG        -7.3970    9.7840   -8.0700 O.3    36  SER36      -0.2180
     44  N         -7.8010    4.1130   -1.3260 N.3    42  SER42      -0.1217
     45  CA        -8.9520    4.9250   -1.0050 C.3    42  SER42       0.1889
     46  C         -9.9630    4.0430   -0.2940 C.2    42  SER42       0.2288
     47  O        -10.0570    2.8450   -0.5700 O.2    42  SER42      -0.2866
     48  CB        -9.5650    5.5150   -2.2750 C.3    42  SER42       0.2089
     49  OG        -8.6710    6.4350   -2.8790 O.3    42  SER42      -0.2183
     50  N        -19.4320    7.9080    0.5560 N.3    52  GLN52      -0.1231
     51  CA       -18.3450    8.8340    0.8760 C.3    52  GLN52       0.1698
     52  C        -16.9850    8.1990    0.5700 C.2    52  GLN52       0.2592
     53  O        -16.7890    7.0110    0.8230 O.2    52  GLN52      -0.2718
     54  CB       -18.4030    9.2130    2.3680 C.3    52  GLN52       0.0381
     55  CG       -19.7320    9.8230    2.8450 C.3    52  GLN52       0.0905
     56  CD       -19.7210   10.2060    4.3290 C.2    52  GLN52       0.2608
     57  OE1      -20.7200   10.6970    4.8670 O.2    52  GLN52      -0.2717
     58  NE2      -18.5920    9.9830    4.9930 N.am   52  GLN52      -0.0878
     59  N        -16.0520    8.9920    0.0440 N.am   53  HIS53      -0.1962
     60  CA       -14.7120    8.4930   -0.2790 C.3    53  HIS53       0.1787
     61  C        -13.6510    9.1970    0.5730 C.2    53  HIS53       0.2620
     62  O        -13.6880   10.4170    0.7230 O.2    53  HIS53      -0.2715
     63  CB       -14.4010    8.7380   -1.7580 C.3    53  HIS53       0.0785
     64  CG       -15.3750    8.0960   -2.6930 C.ar   53  HIS53       0.0821
     65  ND1      -15.3590    6.7470   -2.9700 N.ar   53  HIS53      -0.2267
     66  CD2      -16.4150    8.6110   -3.3900 C.ar   53  HIS53       0.1154
     67  CE1      -16.3450    6.4580   -3.8010 C.ar   53  HIS53       0.1986
     68  NE2      -17.0020    7.5720   -4.0710 N.ar   53  HIS53      -0.2212
     69  N        -12.7160    8.4230    1.1210 N.am   54  PHE54      -0.1960
     70  CA       -11.6310    8.9600    1.9440 C.3    54  PHE54       0.1771
     71  C        -10.2850    8.5470    1.3480 C.2    54  PHE54       0.2619
     72  O        -10.1520    7.4440    0.8170 O.2    54  PHE54      -0.2715
     73  CB       -11.6710    8.3970    3.3690 C.3    54  PHE54       0.0574
     74  CG       -12.9210    8.7180    4.1330 C.ar   54  PHE54      -0.0200
     75  CD1      -14.1190    8.0830    3.8330 C.ar   54  PHE54      -0.0042
     76  CD2      -12.8920    9.6440    5.1680 C.ar   54  PHE54      -0.0042
     77  CE1      -15.2760    8.3640    4.5560 C.ar   54  PHE54      -0.0003
     78  CE2      -14.0380    9.9340    5.8950 C.ar   54  PHE54      -0.0003
     79  CZ       -15.2310    9.2930    5.5890 C.ar   54  PHE54      -0.0000
     80  N         -9.2890    9.4240    1.4380 N.am   55  LYS55      -0.1977
     81  CA        -7.9540    9.0850    0.9560 C.3    55  LYS55       0.1596
     82  C         -7.2810    8.3790    2.1280 C.2    55  LYS55       0.2287
     83  O         -7.3960    8.8320    3.2660 O.2    55  LYS55      -0.2864
     84  CB        -7.1180   10.3400    0.6550 C.3    55  LYS55       0.0298
     85  CG        -7.7030   11.3020   -0.3470 C.3    55  LYS55       0.0038
     86  CD        -6.8000   12.5250   -0.5230 C.3    55  LYS55       0.0206
     87  CE        -6.7790   13.3990    0.7250 C.3    55  LYS55       0.1093
     88  NZ        -5.9820   14.6530    0.5390 N.3    55  LYS55      -0.1314
     89  N         -4.2640    8.1670    3.9070 N.3    57  LEU57      -0.1245
     90  CA        -3.0280    8.9420    3.9580 C.3    57  LEU57       0.1561
     91  C         -1.8600    8.1710    4.5760 C.2    57  LEU57       0.2260
     92  O         -2.0590    7.2050    5.3080 O.2    57  LEU57      -0.2867
     93  CB        -3.2860   10.2390    4.7360 C.3    57  LEU57       0.0270
     94  CG        -4.4170   11.0980    4.1590 C.3    57  LEU57       0.0019
     95  CD1       -4.7810   12.2080    5.1370 C.3    57  LEU57       0.0001
     96  CD2       -3.9900   11.6790    2.8150 C.3    57  LEU57       0.0001
     97  N         -6.4940    8.1560    8.4260 N.3    66  LEU66      -0.1231
     98  CA        -7.5510    8.9100    7.7650 C.3    66  LEU66       0.1693
     99  C         -7.5310   10.3430    8.2850 C.2    66  LEU66       0.2592
    100  O         -7.6000   11.2940    7.5060 O.2    66  LEU66      -0.2718
    101  CB        -8.9260    8.2990    8.0410 C.3    66  LEU66       0.0284
    102  CG        -9.2010    6.8870    7.5320 C.3    66  LEU66       0.0019
    103  CD1      -10.6270    6.4850    7.8810 C.3    66  LEU66       0.0001
    104  CD2       -8.9660    6.8300    6.0240 C.3    66  LEU66       0.0001
    105  N         -7.4350   10.4860    9.6060 N.am   67  TRP67      -0.1976
    106  CA        -7.4280   11.8050   10.2330 C.3    67  TRP67       0.1640
    107  C         -6.2020   12.0810   11.1120 C.2    67  TRP67       0.2290
    108  O         -5.3470   12.8990   10.7650 O.2    67  TRP67      -0.2864
    109  CB        -8.6970   11.9920   11.0780 C.3    67  TRP67       0.0576
    110  CG        -9.9950   11.8790   10.3000 C.ar   67  TRP67       0.0006
    111  CD1      -10.8660   10.8290   10.3140 C.ar   67  TRP67       0.0946
    112  CD2      -10.5640   12.8590    9.4210 C.ar   67  TRP67       0.0152
    113  NE1      -11.9470   11.0930    9.5020 N.ar   67  TRP67      -0.2442
    114  CE2      -11.7850   12.3340    8.9420 C.ar   67  TRP67       0.0810
    115  CE3      -10.1610   14.1330    8.9910 C.ar   67  TRP67       0.0012
    116  CZ2      -12.6090   13.0390    8.0550 C.ar   67  TRP67       0.0191
    117  CZ3      -10.9820   14.8310    8.1100 C.ar   67  TRP67       0.0001
    118  CH2      -12.1910   14.2810    7.6540 C.ar   67  TRP67       0.0015
    119  N        -16.1030    9.4300   10.0650 N.3    87  SER87      -0.1202
    120  CA       -16.6160   10.7500    9.7180 C.3    87  SER87       0.2020
    121  C        -16.6230   11.7270   10.8850 C.2    87  SER87       0.2619
    122  O        -16.7470   11.3270   12.0420 O.2    87  SER87      -0.2717
    123  CB       -18.0350   10.6050    9.1640 C.3    87  SER87       0.2103
    124  OG       -18.6480   11.8660    8.9610 O.3    87  SER87      -0.2182
    125  N        -16.4810   13.0090   10.5650 N.am   88  ARG88      -0.1965
    126  CA       -16.5020   14.0600   11.5750 C.3    88  ARG88       0.1729
    127  C        -17.8510   14.7700   11.5380 C.2    88  ARG88       0.2616
    128  O        -18.0850   15.7150   12.2890 O.2    88  ARG88      -0.2715
    129  CB       -15.3790   15.0680   11.3250 C.3    88  ARG88       0.0348
    130  CG       -14.0000   14.5320   11.6760 C.3    88  ARG88       0.0492
    131  CD       -12.9080   15.5620   11.4390 C.3    88  ARG88       0.2205
    132  NE       -11.6410   15.1320   12.0270 N.pl3  88  ARG88      -0.0865
    133  CZ       -10.4930   15.7910   11.9020 C.cat  88  ARG88       0.5346
    134  NH1      -10.4450   16.9150   11.2030 N.pl3  88  ARG88       0.1354
    135  NH2       -9.3960   15.3290   12.4890 N.pl3  88  ARG88       0.1354
    136  N        -18.7320   14.3020   10.6580 N.am   89  ASN89      -0.1972
    137  CA       -20.0660   14.8820   10.5130 C.3    89  ASN89       0.1688
    138  C        -21.1600   13.9420   10.9980 C.2    89  ASN89       0.2292
    139  O        -22.2590   14.3770   11.3280 O.2    89  ASN89      -0.2864
    140  CB       -20.3400   15.2450    9.0520 C.3    89  ASN89       0.1181
    141  CG       -19.4430   16.3490    8.5500 C.2    89  ASN89       0.2629
    142  OD1      -19.1930   17.3240    9.2520 O.2    89  ASN89      -0.2716
    143  ND2      -18.9630   16.2090    7.3180 N.am   89  ASN89      -0.0877
@<TRIPOS>BOND
     1    36    35   ar
     2    37    35   ar
     3    35    34    1
     4    32    31    2
     5    33    34    1
     6    33    30    1
     7    31    30    1
     8    31    38   am
     9    30    29    1
    10    39    38    1
    11    39    42    1
    12    39    40    1
    13    41    40    2
    14    42    43    1
    15     1     2    1
    16    29    25   am
    17     3     2    1
    18     3     4    2
    19    26    25    2
    20     5     2    1
    21     5     6    1
    22    25    24    1
    23     7     6    1
    24     7     8    1
    25     8     9    2
    26    28    27    1
    27    24    27    1
    28    24    23    1
    29    21    20    1
    30     9    10    1
    31     9    11    1
    32    20    19    2
    33    20    22    1
    34    18    19    1
    35    18    17    1
    36    16    17    1
    37    16    13    1
    38    68    67   ar
    39    68    66   ar
    40    67    65   ar
    41    14    13    1
    42    14    15    2
    43    66    64   ar
    44    13    12    1
    45    65    64   ar
    46    49    48    1
    47    64    63    1
    48    48    45    1
    49    63    60    1
    50    44    45    1
    51    45    46    1
    52    47    46    2
    53    86    85    1
    54    86    87    1
    55    85    84    1
    56    60    59    1
    57    60    61    1
    58    59    52   am
    59    88    87    1
    60    50    51    1
    61    52    53    2
    62    52    51    1
    63    61    62    2
    64    61    69   am
    65    84    81    1
    66    72    71    2
    67    51    54    1
    68    81    80    1
    69    81    82    1
    70    69    70    1
    71    71    80   am
    72    71    70    1
    73    70    73    1
    74    82    83    2
    75    54    55    1
    76    96    94    1
    77    55    56    1
    78    73    74    1
    79    75    74   ar
    80    75    77   ar
    81    89    90    1
    82    90    91    1
    83    90    93    1
    84    74    76   ar
    85    94    93    1
    86    94    95    1
    87    56    57    2
    88    56    58   am
    89    77    79   ar
    90    91    92    2
    91    76    78   ar
    92    79    78   ar
    93   104   102    1
    94   143   141   am
    95   100    99    2
    96   102   103    1
    97   102   101    1
    98   118   116   ar
    99   118   117   ar
   100    98   101    1
   101    98    99    1
   102    98    97    1
   103   116   114   ar
   104   117   115   ar
   105    99   105   am
   106   141   140    1
   107   141   142    2
   108   114   112   ar
   109   114   113   ar
   110   124   123    1
   111   115   112   ar
   112   140   137    1
   113   123   120    1
   114   112   110   ar
   115   113   111   ar
   116   105   106    1
   117   120   119    1
   118   120   121    1
   119   106   109    1
   120   106   107    1
   121   110   111   ar
   122   110   109    1
   123   137   136    1
   124   137   138    1
   125   125   121   am
   126   125   126    1
   127   136   127   am
   128   108   107    2
   129   121   122    2
   130   138   139    2
   131   134   133    1
   132   129   126    1
   133   129   130    1
   134   131   130    1
   135   131   132    1
   136   127   126    1
   137   127   128    2
   138   133   132    2
   139   133   135    1
