@<TRIPOS>MOLECULE
tmp/3c7kC00.pdb
 182 173 0 0 0
SMALL
GASTEIGER

@<TRIPOS>ATOM
      1  N         81.3890   41.0690  -74.7170 N.3     9  GLU9       -0.1231
      2  CA        80.1290   41.3410  -75.4240 C.3     9  GLU9        0.1699
      3  C         79.7730   40.4850  -76.6340 C.2     9  GLU9        0.2593
      4  O         79.2070   41.0070  -77.5990 O.2     9  GLU9       -0.2718
      5  CB        80.0750   42.8020  -75.8590 C.3     9  GLU9        0.0402
      6  CG        79.7070   43.7440  -74.7640 C.3     9  GLU9        0.1161
      7  CD        79.7690   45.1850  -75.2080 C.2     9  GLU9        0.3649
      8  OE1       79.1790   45.5030  -76.2610 O.co2   9  GLU9       -0.2457
      9  OE2       80.3980   46.0020  -74.5010 O.co2   9  GLU9       -0.2457
     10  N         80.0720   39.1880  -76.6000 N.am   10  SER10      -0.1938
     11  CA        79.7570   38.3330  -77.7450 C.3    10  SER10       0.2055
     12  C         78.4150   37.6150  -77.6090 C.2    10  SER10       0.2644
     13  O         78.0920   36.7350  -78.4170 O.2    10  SER10      -0.2714
     14  CB        80.8560   37.3010  -77.9720 C.3    10  SER10       0.2130
     15  OG        81.0250   36.4920  -76.8280 O.3    10  SER10      -0.2179
     16  N         77.6470   37.9830  -76.5810 N.am   11  GLY11      -0.1939
     17  CA        76.3370   37.3920  -76.3760 C.3    11  GLY11       0.2014
     18  C         76.2780   36.1400  -75.5320 C.2    11  GLY11       0.2639
     19  O         75.1900   35.6580  -75.2340 O.2    11  GLY11      -0.2714
     20  N         77.4370   35.6130  -75.1510 N.am   12  LYS12      -0.1963
     21  CA        77.5190   34.3960  -74.3420 C.3    12  LYS12       0.1728
     22  C         76.3590   34.2820  -73.3710 C.2    12  LYS12       0.2617
     23  O         75.7500   33.2210  -73.2290 O.2    12  LYS12      -0.2715
     24  CB        78.8220   34.3650  -73.5400 C.3    12  LYS12       0.0311
     25  CG        80.0780   34.5220  -74.3790 C.3    12  LYS12       0.0038
     26  CD        81.3210   34.6560  -73.5160 C.3    12  LYS12       0.0206
     27  CE        81.1810   35.7920  -72.5230 C.3    12  LYS12       0.1093
     28  NZ        81.1490   37.1140  -73.1550 N.3    12  LYS12      -0.1314
     29  N         76.0580   35.3840  -72.7000 N.am   13  SER13      -0.1936
     30  CA        74.9800   35.3730  -71.7380 C.3    13  SER13       0.2055
     31  C         73.6020   35.2500  -72.3420 C.2    13  SER13       0.2643
     32  O         72.7610   34.5270  -71.8060 O.2    13  SER13      -0.2714
     33  CB        75.0300   36.6100  -70.8590 C.3    13  SER13       0.2130
     34  OG        75.5040   36.2620  -69.5720 O.3    13  SER13      -0.2179
     35  N         73.3490   35.9540  -73.4410 N.am   14  THR14      -0.1950
     36  CA        72.0370   35.8720  -74.0700 C.3    14  THR14       0.1897
     37  C         71.7860   34.4490  -74.5520 C.2    14  THR14       0.2313
     38  O         70.6370   34.0290  -74.6720 O.2    14  THR14      -0.2863
     39  CB        71.8890   36.8830  -75.2340 C.3    14  THR14       0.1794
     40  OG1       71.7800   38.2070  -74.6900 O.3    14  THR14      -0.2208
     41  CG2       70.6380   36.5870  -76.0600 C.3    14  THR14       0.0378
     42  N         70.3860   32.9030  -71.4980 N.3    17  LYS17      -0.1245
     43  CA        69.0040   33.3240  -71.2880 C.3    17  LYS17       0.1561
     44  C         68.0670   32.4440  -72.1200 C.2    17  LYS17       0.2260
     45  O         66.8880   32.3110  -71.8030 O.2    17  LYS17      -0.2867
     46  CB        68.7950   34.7800  -71.7000 C.3    17  LYS17       0.0271
     47  CG        69.3980   35.8210  -70.7880 C.3    17  LYS17       0.0035
     48  CD        68.9120   37.1970  -71.2230 C.3    17  LYS17       0.0206
     49  CE        69.7180   38.3030  -70.5830 C.3    17  LYS17       0.1093
     50  NZ        71.1550   38.1710  -70.9420 N.3    17  LYS17      -0.1314
     51  N         75.4180   50.3980  -77.3160 N.3   116  ASN116     -0.1225
     52  CA        74.7220   49.1400  -77.0690 C.3   116  ASN116      0.1785
     53  C         74.1700   48.5300  -78.3290 C.2   116  ASN116      0.2597
     54  O         73.6960   49.2250  -79.2180 O.2   116  ASN116     -0.2718
     55  CB        73.5660   49.3410  -76.0980 C.3   116  ASN116      0.1169
     56  CG        74.0180   49.3890  -74.6760 C.2   116  ASN116      0.2627
     57  OD1       74.8390   48.5680  -74.2510 O.2   116  ASN116     -0.2716
     58  ND2       73.4800   50.3420  -73.9130 N.am  116  ASN116     -0.0877
     59  N         74.2130   47.2140  -78.3990 N.am  117  ASP117     -0.1960
     60  CA        73.7080   46.5430  -79.5700 C.3   117  ASP117      0.1840
     61  C         72.2250   46.7660  -79.6750 C.2   117  ASP117      0.2622
     62  O         71.7080   47.1940  -80.7110 O.2   117  ASP117     -0.2715
     63  CB        73.9850   45.0560  -79.4680 C.3   117  ASP117      0.1450
     64  CG        75.4440   44.7390  -79.6150 C.2   117  ASP117      0.3671
     65  OD1       75.9290   44.7740  -80.7730 O.co2 117  ASP117     -0.2456
     66  OD2       76.1010   44.4720  -78.5760 O.co2 117  ASP117     -0.2456
     67  N         71.5440   46.4880  -78.5760 N.am  118  SER118     -0.1950
     68  CA        70.1030   46.6000  -78.5380 C.3   118  SER118      0.1924
     69  C         69.5860   48.0270  -78.4480 C.2   118  SER118      0.2314
     70  O         68.4290   48.2520  -78.1090 O.2   118  SER118     -0.2863
     71  CB        69.5840   45.7520  -77.3820 C.3   118  SER118      0.2116
     72  OG        70.0940   44.4300  -77.5010 O.3   118  SER118     -0.2180
     73  N         66.0240   39.5260  -73.3560 N.3   142  LEU142     -0.1231
     74  CA        67.1900   39.0310  -74.0880 C.3   142  LEU142      0.1693
     75  C         68.0220   40.2140  -74.5610 C.2   142  LEU142      0.2592
     76  O         69.2470   40.1510  -74.5880 O.2   142  LEU142     -0.2718
     77  CB        66.7430   38.2190  -75.2990 C.3   142  LEU142      0.0284
     78  CG        66.2430   36.8120  -74.9900 C.3   142  LEU142      0.0019
     79  CD1       65.2210   36.3630  -76.0430 C.3   142  LEU142      0.0001
     80  CD2       67.4500   35.8740  -74.9160 C.3   142  LEU142      0.0001
     81  N         67.3320   41.2900  -74.9260 N.am  143  ARG143     -0.1966
     82  CA        67.9500   42.5170  -75.4120 C.3   143  ARG143      0.1729
     83  C         68.5730   43.3620  -74.3100 C.2   143  ARG143      0.2617
     84  O         68.9930   44.4830  -74.5660 O.2   143  ARG143     -0.2715
     85  CB        66.9090   43.3700  -76.1420 C.3   143  ARG143      0.0348
     86  CG        66.3500   42.7730  -77.4240 C.3   143  ARG143      0.0492
     87  CD        67.3680   42.8710  -78.5320 C.3   143  ARG143      0.2205
     88  NE        66.7690   42.7240  -79.8520 N.pl3 143  ARG143     -0.0865
     89  CZ        67.4230   42.9580  -80.9800 C.cat 143  ARG143      0.5346
     90  NH1       68.6890   43.3470  -80.9320 N.pl3 143  ARG143      0.1354
     91  NH2       66.8160   42.8050  -82.1450 N.pl3 143  ARG143      0.1354
     92  N         68.6150   42.8470  -73.0860 N.am  144  THR144     -0.1937
     93  CA        69.2040   43.6020  -71.9780 C.3   144  THR144      0.2028
     94  C         70.6980   43.3860  -71.9040 C.2   144  THR144      0.2642
     95  O         71.2240   42.3430  -72.3120 O.2   144  THR144     -0.2714
     96  CB        68.6530   43.2020  -70.5860 C.3   144  THR144      0.1808
     97  OG1       68.8190   41.7860  -70.3960 O.3   144  THR144     -0.2208
     98  CG2       67.1920   43.6250  -70.4250 C.3   144  THR144      0.0379
     99  N         71.3750   44.3710  -71.3330 N.am  145  ARG145     -0.1963
    100  CA        72.8120   44.3030  -71.2100 C.3   145  ARG145      0.1729
    101  C         73.3080   44.4840  -69.7840 C.2   145  ARG145      0.2616
    102  O         72.8700   45.3950  -69.0710 O.2   145  ARG145     -0.2715
    103  CB        73.4330   45.3520  -72.1180 C.3   145  ARG145      0.0348
    104  CG        74.9020   45.5050  -71.9490 C.3   145  ARG145      0.0492
    105  CD        75.6520   44.2120  -72.1510 C.3   145  ARG145      0.2205
    106  NE        77.0490   44.4420  -71.8020 N.pl3 145  ARG145     -0.0865
    107  CZ        78.0130   43.5310  -71.8210 C.cat 145  ARG145      0.5346
    108  NH1       77.7630   42.2710  -72.1770 N.pl3 145  ARG145      0.1354
    109  NH2       79.2390   43.9050  -71.4820 N.pl3 145  ARG145      0.1354
    110  N         74.2220   43.5930  -69.3900 N.am  146  VAL146     -0.1977
    111  CA        74.8610   43.6020  -68.0710 C.3   146  VAL146      0.1596
    112  C         76.1660   42.7980  -68.1190 C.2   146  VAL146      0.2287
    113  O         76.1560   41.5980  -68.3970 O.2   146  VAL146     -0.2864
    114  CB        73.9430   42.9990  -66.9910 C.3   146  VAL146      0.0276
    115  CG1       74.7370   42.7540  -65.6980 C.3   146  VAL146      0.0022
    116  CG2       72.7740   43.9410  -66.7310 C.3   146  VAL146      0.0022
    117  N         78.9650   40.4910  -67.3540 N.3   148  THR148     -0.1218
    118  CA        79.1220   39.3030  -66.5510 C.3   148  THR148      0.1862
    119  C         80.5480   39.0820  -66.0780 C.2   148  THR148      0.2287
    120  O         81.4240   38.7610  -66.8800 O.2   148  THR148     -0.2866
    121  CB        78.6820   38.0740  -67.3500 C.3   148  THR148      0.1770
    122  OG1       77.2730   38.1490  -67.5840 O.3   148  THR148     -0.2211
    123  CG2       79.0140   36.7960  -66.6050 C.3   148  THR148      0.0375
    124  N         78.7950   30.0720  -68.0230 N.3   167  ASP167     -0.1239
    125  CA        78.9170   31.3710  -68.6660 C.3   167  ASP167      0.1674
    126  C         80.1010   32.0740  -67.9970 C.2   167  ASP167      0.2266
    127  O         80.2530   31.9930  -66.7770 O.2   167  ASP167     -0.2867
    128  CB        77.6420   32.1730  -68.4330 C.3   167  ASP167      0.1410
    129  CG        77.6030   33.4470  -69.2340 C.2   167  ASP167      0.3668
    130  OD1       76.6830   34.2620  -69.0020 O.co2 167  ASP167     -0.2456
    131  OD2       78.4860   33.6270  -70.1000 O.co2 167  ASP167     -0.2456
    132  N         77.7330   34.6010  -83.7330 N.3   236  ASN236     -0.1225
    133  CA        76.6160   35.4090  -83.2680 C.3   236  ASN236      0.1785
    134  C         76.3950   36.7530  -83.9570 C.2   236  ASN236      0.2597
    135  O         77.2160   37.2110  -84.7490 O.2   236  ASN236     -0.2718
    136  CB        76.7650   35.6210  -81.7640 C.3   236  ASN236      0.1169
    137  CG        75.5380   36.2220  -81.1450 C.2   236  ASN236      0.2627
    138  OD1       74.4260   35.8120  -81.4560 O.2   236  ASN236     -0.2716
    139  ND2       75.7270   37.1870  -80.2530 N.am  236  ASN236     -0.0877
    140  N         75.2580   37.3690  -83.6420 N.am  237  LYS237     -0.1980
    141  CA        74.8610   38.6740  -84.1830 C.3   237  LYS237      0.1596
    142  C         74.7360   38.7820  -85.7040 C.2   237  LYS237      0.2287
    143  O         74.7940   39.8810  -86.2520 O.2   237  LYS237     -0.2864
    144  CB        75.8110   39.7780  -83.6800 C.3   237  LYS237      0.0298
    145  CG        75.7790   39.9730  -82.1720 C.3   237  LYS237      0.0038
    146  CD        76.3890   41.2940  -81.7390 C.3   237  LYS237      0.0206
    147  CE        76.2190   41.5390  -80.2370 C.3   237  LYS237      0.1093
    148  NZ        77.0200   40.6160  -79.3790 N.3   237  LYS237     -0.1314
    149  N         72.3690   38.9340  -87.4660 N.3   239  ASP239     -0.1225
    150  CA        71.2950   39.8330  -87.8630 C.3   239  ASP239      0.1805
    151  C         71.8440   41.2440  -88.0520 C.2   239  ASP239      0.2597
    152  O         71.5090   41.9180  -89.0300 O.2   239  ASP239     -0.2718
    153  CB        70.1820   39.8360  -86.8180 C.3   239  ASP239      0.1424
    154  CG        70.6450   40.3510  -85.4680 C.2   239  ASP239      0.3668
    155  OD1       71.5800   39.7590  -84.8930 O.co2 239  ASP239     -0.2456
    156  OD2       70.0680   41.3480  -84.9790 O.co2 239  ASP239     -0.2456
    157  N         72.6960   41.6750  -87.1180 N.am  240  LEU240     -0.1979
    158  CA        73.3230   42.9990  -87.1550 C.3   240  LEU240      0.1596
    159  C         74.3880   43.0050  -88.2370 C.2   240  LEU240      0.2287
    160  O         74.5540   43.9780  -88.9580 O.2   240  LEU240     -0.2864
    161  CB        73.9910   43.2980  -85.8210 C.3   240  LEU240      0.0297
    162  CG        73.1360   43.2280  -84.5620 C.3   240  LEU240      0.0022
    163  CD1       73.9770   42.7510  -83.3960 C.3   240  LEU240      0.0001
    164  CD2       72.5300   44.5880  -84.2910 C.3   240  LEU240      0.0001
    165  N         72.2110   33.6850  -83.7090 N.3   291  CYS291     -0.1221
    166  CA        71.5070   34.9170  -83.3740 C.3   291  CYS291      0.1808
    167  C         70.8200   34.7550  -82.0230 C.2   291  CYS291      0.2601
    168  O         69.6060   34.6180  -81.9410 O.2   291  CYS291     -0.2717
    169  CB        70.4660   35.2530  -84.4410 C.3   291  CYS291      0.0970
    170  SG        69.6090   36.8290  -84.1540 S.3   291  CYS291     -0.0800
    171  N         71.6160   34.7850  -80.9650 N.am  292  ALA292     -0.1965
    172  CA        71.1310   34.6210  -79.6050 C.3   292  ALA292      0.1728
    173  C         69.7810   35.2370  -79.2370 C.2   292  ALA292      0.2616
    174  O         69.1060   34.7040  -78.3640 O.2   292  ALA292     -0.2715
    175  CB        72.1880   35.1060  -78.6330 C.3   292  ALA292      0.0334
    176  N         69.3720   36.3370  -79.8710 N.am  293  THR293     -0.1951
    177  CA        68.0870   36.9620  -79.5050 C.3   293  THR293      0.1897
    178  C         66.8310   36.3190  -80.0900 C.2   293  THR293      0.2313
    179  O         65.7300   36.4890  -79.5580 O.2   293  THR293     -0.2863
    180  CB        68.0330   38.4770  -79.8490 C.3   293  THR293      0.1794
    181  OG1       68.3740   38.6760  -81.2250 O.3   293  THR293     -0.2208
    182  CG2       68.9690   39.2680  -78.9470 C.3   293  THR293      0.0378
@<TRIPOS>BOND
     1   152   151    2
     2   160   159    2
     3   159   158    1
     4   151   150    1
     5   151   157   am
     6   150   149    1
     7   150   153    1
     8   158   157    1
     9   158   161    1
    10   153   154    1
    11   143   142    2
    12   161   162    1
    13   142   141    1
    14   154   156   ar
    15   154   155   ar
    16   135   134    2
    17   162   164    1
    18   162   163    1
    19   169   170    1
    20   169   166    1
    21   141   144    1
    22   141   140    1
    23   134   140   am
    24   134   133    1
    25   132   133    1
    26   165   166    1
    27   144   145    1
    28   166   167    1
    29   133   136    1
    30   145   146    1
    31    91    89    1
    32   167   168    2
    33   167   171   am
    34   136   137    1
    35   146   147    1
    36   138   137    2
    37   181   180    1
    38   137   139   am
    39    89    90    1
    40    89    88    2
    41   171   172    1
    42    65    64   ar
    43    62    61    2
    44   147   148    1
    45   178   179    2
    46   178   177    1
    47   176   177    1
    48   176   173   am
    49    88    87    1
    50   180   177    1
    51   180   182    1
    52    61    60    1
    53    61    67   am
    54    64    63    1
    55    64    66   ar
    56   172   173    1
    57   172   175    1
    58    60    63    1
    59    60    59    1
    60   173   174    2
    61    54    53    2
    62    67    68    1
    63    68    69    1
    64    68    71    1
    65    87    86    1
    66    69    70    2
    67    13    12    2
    68    59    53   am
    69    53    52    1
    70    14    11    1
    71    14    15    1
    72    11    12    1
    73    11    10    1
    74    12    16   am
    75     4     3    2
    76    72    71    1
    77    86    85    1
    78    51    52    1
    79    52    55    1
    80     3    10   am
    81     3     2    1
    82    16    17    1
    83    17    18    1
    84     8     7   ar
    85    85    82    1
    86    55    56    1
    87    41    39    1
    88    79    78    1
    89     5     2    1
    90     5     6    1
    91    18    19    2
    92    18    20   am
    93     2     1    1
    94    82    81    1
    95    82    83    1
    96    77    78    1
    97    77    74    1
    98    39    40    1
    99    39    36    1
   100     7     6    1
   101     7     9   ar
   102    20    21    1
   103    78    80    1
   104    81    75   am
   105    56    57    2
   106    56    58   am
   107    38    37    2
   108    76    75    2
   109    84    83    2
   110    75    74    1
   111    37    36    1
   112    25    24    1
   113    25    26    1
   114    21    24    1
   115    21    22    1
   116    83    92   am
   117    74    73    1
   118    36    35    1
   119    26    27    1
   120    35    31   am
   121    22    23    2
   122    22    29   am
   123    28    27    1
   124    92    93    1
   125    29    30    1
   126    31    32    2
   127    31    30    1
   128    95    94    2
   129   108   107    1
   130   105   104    1
   131   105   106    1
   132    44    45    2
   133    44    43    1
   134   103   104    1
   135   103   100    1
   136    93    94    1
   137    93    96    1
   138    94    99   am
   139   107   106    2
   140   107   109    1
   141    30    33    1
   142    46    43    1
   143    46    47    1
   144    42    43    1
   145    99   100    1
   146    48    47    1
   147    48    49    1
   148   100   101    1
   149    50    49    1
   150    33    34    1
   151    96    98    1
   152    96    97    1
   153   131   129   ar
   154   101   110   am
   155   101   102    2
   156   110   111    1
   157   129   130   ar
   158   129   128    1
   159   125   128    1
   160   125   124    1
   161   125   126    1
   162   113   112    2
   163   112   111    1
   164   111   114    1
   165   126   127    2
   166   122   121    1
   167   117   118    1
   168   121   123    1
   169   121   118    1
   170   114   116    1
   171   114   115    1
   172   120   119    2
   173   118   119    1
