@<TRIPOS>MOLECULE
tmp/3c7nB00.pdb
 135 125 0 0 0
SMALL
GASTEIGER

@<TRIPOS>ATOM
      1  N        -32.4060   41.8390  -11.3270 N.3    12  THR12      -0.1203
      2  CA       -31.7000   41.0000  -12.3030 C.3    12  THR12       0.1994
      3  C        -32.3490   39.6580  -12.5930 C.2    12  THR12       0.2617
      4  O        -32.1020   39.0770  -13.6400 O.2    12  THR12      -0.2717
      5  CB       -30.2390   40.7870  -11.8950 C.3    12  THR12       0.1784
      6  OG1      -30.1490   40.7350  -10.4640 O.3    12  THR12      -0.2211
      7  CG2      -29.3690   41.9440  -12.4300 C.3    12  THR12       0.0376
      8  N        -33.1790   39.1810  -11.6660 N.am   13  TYR13      -0.1975
      9  CA       -33.9030   37.9090  -11.8050 C.3    13  TYR13       0.1639
     10  C        -35.2620   37.9930  -11.1550 C.2    13  TYR13       0.2290
     11  O        -35.3970   38.3550   -9.9910 O.2    13  TYR13      -0.2864
     12  CB       -33.1320   36.7730  -11.1350 C.3    13  TYR13       0.0560
     13  CG       -31.9230   36.3220  -11.9130 C.ar   13  TYR13      -0.0198
     14  CD1      -30.6780   36.9400  -11.7400 C.ar   13  TYR13      -0.0009
     15  CD2      -32.0250   35.2880  -12.8370 C.ar   13  TYR13      -0.0009
     16  CE1      -29.5710   36.5270  -12.4630 C.ar   13  TYR13       0.0417
     17  CE2      -30.9320   34.8720  -13.5670 C.ar   13  TYR13       0.0417
     18  CZ       -29.7050   35.4900  -13.3810 C.ar   13  TYR13       0.1957
     19  OH       -28.6190   35.0460  -14.1200 O.3    13  TYR13      -0.2866
     20  N        -35.8830   31.1100  -10.9070 N.3    35  THR35      -0.1218
     21  CA       -35.7100   32.5310  -11.2640 C.3    35  THR35       0.1862
     22  C        -35.3660   32.7530  -12.7500 C.2    35  THR35       0.2287
     23  O        -34.5800   32.0140  -13.3640 O.2    35  THR35      -0.2866
     24  CB       -34.6210   33.2550  -10.4320 C.3    35  THR35       0.1770
     25  OG1      -33.3270   32.7900  -10.8110 O.3    35  THR35      -0.2211
     26  CG2      -34.7990   33.0330   -8.9690 C.3    35  THR35       0.0375
     27  N        -28.7870   40.1590   -1.7770 N.3   199  GLY199     -0.1210
     28  CA       -28.7890   39.5720   -3.1040 C.3   199  GLY199      0.1956
     29  C        -27.4110   39.1690   -3.6250 C.2   199  GLY199      0.2612
     30  O        -26.4690   38.9570   -2.8490 O.2   199  GLY199     -0.2717
     31  N        -27.3040   39.0430   -4.9500 N.am  200  GLY200     -0.1942
     32  CA       -26.0220   38.9060   -5.6180 C.3   200  GLY200      0.2017
     33  C        -25.3700   40.2420   -5.9390 C.2   200  GLY200      0.2678
     34  O        -24.2450   40.2580   -6.4450 O.2   200  GLY200     -0.2710
     35  N        -26.0490   41.3590   -5.6420 N.am  201  GLY201     -0.1729
     36  CA       -25.5480   42.6850   -6.0190 C.2   201  GLY201      0.1340
     37  C        -26.3270   43.9100   -5.5340 C.2   201  GLY201      0.2521
     38  O        -26.1490   45.0280   -6.0320 O.2   201  GLY201     -0.2816
     39  N        -23.1740   38.9580   -3.4010 N.3   228  GLY228     -0.1210
     40  CA       -22.5120   37.8760   -4.1220 C.3   228  GLY228      0.1956
     41  C        -21.3880   38.3280   -5.0390 C.2   228  GLY228      0.2611
     42  O        -20.2040   38.1650   -4.7160 O.2   228  GLY228     -0.2717
     43  N        -21.7640   38.9170   -6.1690 N.am  229  GLU229     -0.1979
     44  CA       -20.8040   39.3090   -7.1830 C.3   229  GLU229      0.1602
     45  C        -19.5380   39.9700   -6.6270 C.2   229  GLU229      0.2287
     46  O        -18.4750   39.9200   -7.2540 O.2   229  GLU229     -0.2864
     47  CB       -21.4650   40.2110   -8.2290 C.3   229  GLU229      0.0415
     48  CG       -20.6260   40.3240   -9.5150 C.3   229  GLU229      0.1163
     49  CD       -21.4560   40.4150  -10.8220 C.2   229  GLU229      0.3649
     50  OE1      -21.2200   41.4040  -11.5780 O.co2 229  GLU229     -0.2457
     51  OE2      -22.3110   39.5090  -11.0950 O.co2 229  GLU229     -0.2457
     52  N        -17.2300   37.3880   -4.9520 N.3   232  ASP232     -0.1239
     53  CA       -16.6350   36.6920   -6.0930 C.3   232  ASP232      0.1674
     54  C        -15.3700   37.4130   -6.5070 C.2   232  ASP232      0.2266
     55  O        -14.2740   36.8380   -6.5170 O.2   232  ASP232     -0.2867
     56  CB       -17.5920   36.6700   -7.2860 C.3   232  ASP232      0.1410
     57  CG       -18.6920   35.6520   -7.1330 C.2   232  ASP232      0.3668
     58  OD1      -18.7580   34.9910   -6.0750 O.co2 232  ASP232     -0.2456
     59  OD2      -19.5020   35.5240   -8.0770 O.co2 232  ASP232     -0.2456
     60  N        -17.2520   31.3590   -7.9240 N.3   266  GLU266     -0.1245
     61  CA       -18.6360   31.4220   -7.4650 C.3   266  GLU266      0.1567
     62  C        -19.0750   30.0490   -7.0350 C.2   266  GLU266      0.2260
     63  O        -19.7470   29.8780   -6.0200 O.2   266  GLU266     -0.2867
     64  CB       -19.5430   31.9280   -8.5730 C.3   266  GLU266      0.0388
     65  CG       -20.9020   32.3240   -8.0910 C.3   266  GLU266      0.1160
     66  CD       -21.9180   31.2360   -8.3330 C.2   266  GLU266      0.3649
     67  OE1      -22.7800   31.0080   -7.4530 O.co2 266  GLU266     -0.2457
     68  OE2      -21.8490   30.6040   -9.4110 O.co2 266  GLU266     -0.2457
     69  N        -17.3180   29.3020   -3.8040 N.3   269  LYS269     -0.1231
     70  CA       -17.9680   30.1130   -2.7870 C.3   269  LYS269      0.1693
     71  C        -19.1530   29.3670   -2.2140 C.2   269  LYS269      0.2591
     72  O        -19.2990   29.2420   -0.9930 O.2   269  LYS269     -0.2718
     73  CB       -18.4550   31.4240   -3.4260 C.3   269  LYS269      0.0285
     74  CG       -19.2350   32.3850   -2.5250 C.3   269  LYS269      0.0035
     75  CD       -19.3630   33.7090   -3.2330 C.3   269  LYS269      0.0206
     76  CE       -20.6770   33.8890   -3.9790 C.3   269  LYS269      0.1093
     77  NZ       -21.6140   34.8770   -3.2870 N.3   269  LYS269     -0.1314
     78  N        -20.0120   28.8950   -3.1150 N.am  270  ARG270     -0.1980
     79  CA       -21.1770   28.1090   -2.7400 C.3   270  ARG270      0.1597
     80  C        -20.7680   26.8430   -1.9670 C.2   270  ARG270      0.2287
     81  O        -21.3390   26.5330   -0.9140 O.2   270  ARG270     -0.2864
     82  CB       -22.0110   27.7880   -3.9830 C.3   270  ARG270      0.0334
     83  CG       -23.0600   28.8660   -4.3010 C.3   270  ARG270      0.0492
     84  CD       -23.4740   28.9390   -5.7770 C.3   270  ARG270      0.2205
     85  NE       -23.5390   27.6270   -6.4060 N.pl3 270  ARG270     -0.0865
     86  CZ       -23.0040   27.3300   -7.5870 C.cat 270  ARG270      0.5346
     87  NH1      -22.3980   28.2690   -8.2910 N.pl3 270  ARG270      0.1354
     88  NH2      -23.0980   26.0970   -8.0680 N.pl3 270  ARG270      0.1354
     89  N        -19.9400   27.4030    1.7750 N.3   273  SER273     -0.1217
     90  CA       -21.0060   27.6180    2.7470 C.3   273  SER273      0.1889
     91  C        -21.4400   26.3040    3.3940 C.2   273  SER273      0.2288
     92  O        -22.1010   26.3140    4.4270 O.2   273  SER273     -0.2866
     93  CB       -22.1990   28.3200    2.1030 C.3   273  SER273      0.2089
     94  OG       -21.8170   29.5940    1.6030 O.3   273  SER273     -0.2183
     95  N        -32.3450   36.3400    0.1050 N.3   336  GLY336     -0.1210
     96  CA       -31.2690   36.4270   -0.8750 C.3   336  GLY336      0.1956
     97  C        -30.2140   35.3690   -0.6380 C.2   336  GLY336      0.2612
     98  O        -29.9230   35.0320    0.5100 O.2   336  GLY336     -0.2717
     99  N        -29.6280   34.8650   -1.7200 N.am  337  GLY337     -0.1942
    100  CA       -28.7170   33.7320   -1.6740 C.3   337  GLY337      0.2014
    101  C        -27.3750   33.9220   -0.9970 C.2   337  GLY337      0.2639
    102  O        -26.7370   32.9460   -0.5560 O.2   337  GLY337     -0.2714
    103  N        -26.9280   35.1700   -0.9100 N.am  338  SER338     -0.1949
    104  CA       -25.6590   35.4550   -0.2270 C.3   338  SER338      0.1924
    105  C        -25.7730   35.3050    1.3000 C.2   338  SER338      0.2314
    106  O        -24.7770   35.2180    2.0020 O.2   338  SER338     -0.2863
    107  CB       -25.0990   36.8250   -0.6500 C.3   338  SER338      0.2116
    108  OG       -24.3440   36.7070   -1.8480 O.3   338  SER338     -0.2180
    109  N        -26.4430   32.8410    2.8190 N.3   340  ARG340     -0.1231
    110  CA       -26.1580   31.4390    3.1000 C.3   340  ARG340      0.1694
    111  C        -24.7400   31.3120    3.6210 C.2   340  ARG340      0.2591
    112  O        -24.3760   30.2750    4.1720 O.2   340  ARG340     -0.2718
    113  CB       -26.3000   30.5910    1.8280 C.3   340  ARG340      0.0321
    114  CG       -27.6820   30.6070    1.1410 C.3   340  ARG340      0.0489
    115  CD       -27.9170   29.2840    0.4000 C.3   340  ARG340      0.2205
    116  NE       -29.2910   29.0550   -0.0290 N.pl3 340  ARG340     -0.0865
    117  CZ       -29.6720   28.9570   -1.3050 C.cat 340  ARG340      0.5346
    118  NH1      -28.7840   29.0740   -2.2950 N.pl3 340  ARG340      0.1354
    119  NH2      -30.9540   28.7250   -1.5950 N.pl3 340  ARG340      0.1354
    120  N        -23.9400   32.3620    3.4020 N.am  341  ILE341     -0.1980
    121  CA       -22.5650   32.4700    3.8900 C.3   341  ILE341      0.1595
    122  C        -22.5090   32.2890    5.4090 C.2   341  ILE341      0.2287
    123  O        -22.8290   33.2160    6.1490 O.2   341  ILE341     -0.2864
    124  CB       -22.0130   33.8860    3.5910 C.3   341  ILE341      0.0276
    125  CG1      -22.2560   34.2710    2.1360 C.3   341  ILE341      0.0022
    126  CG2      -20.5560   33.9930    3.9430 C.3   341  ILE341      0.0022
    127  CD1      -21.5120   33.4440    1.1750 C.3   341  ILE341      0.0001
    128  N        -33.3820   32.4900   -1.7350 N.3   364  ASP364     -0.1239
    129  CA       -33.3770   32.7270   -3.1730 C.3   364  ASP364      0.1674
    130  C        -34.7350   33.2320   -3.6680 C.2   364  ASP364      0.2266
    131  O        -34.8240   33.8610   -4.7290 O.2   364  ASP364     -0.2867
    132  CB       -33.0320   31.4080   -3.8740 C.3   364  ASP364      0.1410
    133  CG       -32.4550   31.6090   -5.2720 C.2   364  ASP364      0.3668
    134  OD1      -31.4340   32.3160   -5.4350 O.co2 364  ASP364     -0.2456
    135  OD2      -32.9920   31.0290   -6.2360 O.co2 364  ASP364     -0.2456
@<TRIPOS>BOND
     1    19    18    1
     2     4     3    2
     3    17    18   ar
     4    17    15   ar
     5    18    16   ar
     6    23    22    2
     7    15    13   ar
     8    22    21    1
     9     3     2    1
    10     3     8   am
    11    16    14   ar
    12     7     5    1
    13     2     5    1
    14     2     1    1
    15    13    14   ar
    16    13    12    1
    17     5     6    1
    18     9     8    1
    19     9    10    1
    20     9    12    1
    21    50    49   ar
    22    21    20    1
    23    21    24    1
    24    10    11    2
    25    51    49   ar
    26    49    48    1
    27    25    24    1
    28    24    26    1
    29    48    47    1
    30    68    66   ar
    31    64    65    1
    32    64    61    1
    33    66    65    1
    34    66    67   ar
    35    87    86    1
    36    47    44    1
    37    59    57   ar
    38    88    86    1
    39    60    61    1
    40    86    85    2
    41    61    62    1
    42    56    57    1
    43    56    53    1
    44    46    45    2
    45    44    45    1
    46    44    43    1
    47    57    58   ar
    48    62    63    2
    49    55    54    2
    50    54    53    1
    51    34    33    2
    52    85    84    1
    53   135   133   ar
    54    43    41   am
    55    53    52    1
    56    38    37    2
    57    36    35    2
    58    36    37    1
    59    33    35    1
    60    33    32    1
    61    84    83    1
    62    32    31    1
    63   134   133   ar
    64   133   132    1
    65    41    42    2
    66    41    40    1
    67    31    29   am
    68   131   130    2
    69    83    82    1
    70    40    39    1
    71    82    79    1
    72    76    77    1
    73    76    75    1
    74   132   129    1
    75    69    70    1
    76   130   129    1
    77    29    28    1
    78    29    30    2
    79    73    70    1
    80    73    74    1
    81    75    74    1
    82   129   128    1
    83    78    79    1
    84    78    71   am
    85    28    27    1
    86    70    71    1
    87    79    80    1
    88   118   117    1
    89    71    72    2
    90    80    81    2
    91   108   107    1
    92    99   100    1
    93    99    97   am
    94   100   101    1
    95   119   117    1
    96   117   116    2
    97   101   103   am
    98   101   102    2
    99   103   104    1
   100    96    97    1
   101    96    95    1
   102   107   104    1
   103    97    98    2
   104   104   105    1
   105   116   115    1
   106   115   114    1
   107   114   113    1
   108   127   125    1
   109   105   106    2
   110    94    93    1
   111    89    90    1
   112   113   110    1
   113    93    90    1
   114   125   124    1
   115    90    91    1
   116   109   110    1
   117   110   111    1
   118    91    92    2
   119   120   111   am
   120   120   121    1
   121   124   121    1
   122   124   126    1
   123   111   112    2
   124   121   122    1
   125   122   123    2
