@<TRIPOS>MOLECULE
tmp/3c7nA00.pdb
 174 161 0 0 0
SMALL
GASTEIGER

@<TRIPOS>ATOM
      1  N        -34.6780   10.1060   -6.8750 N.3     8  ASP8       -0.1239
      2  CA       -34.8730    9.8870   -8.2970 C.3     8  ASP8        0.1674
      3  C        -33.5200    9.6900   -8.9290 C.2     8  ASP8        0.2266
      4  O        -32.8290   10.6580   -9.2260 O.2     8  ASP8       -0.2867
      5  CB       -35.5730   11.0850   -8.9360 C.3     8  ASP8        0.1410
      6  CG       -35.5690   11.0260  -10.4640 C.2     8  ASP8        0.3668
      7  OD1      -35.1320    9.9680  -11.0090 O.co2   8  ASP8       -0.2456
      8  OD2      -36.0020   12.0240  -11.1050 O.co2   8  ASP8       -0.2456
      9  N        -31.5740    9.3560  -11.5770 N.3    10  GLY10      -0.1210
     10  CA       -31.4580    9.6090  -13.0060 C.3    10  GLY10       0.1956
     11  C        -30.0170    9.4630  -13.4320 C.2    10  GLY10       0.2612
     12  O        -29.1440    9.6620  -12.6050 O.2    10  GLY10      -0.2717
     13  N        -29.7720    9.1040  -14.6930 N.am   11  ASN11      -0.1960
     14  CA       -28.4290    8.7540  -15.1820 C.3    11  ASN11       0.1819
     15  C        -27.4100    9.8970  -15.1310 C.2    11  ASN11       0.2621
     16  O        -26.2200    9.6760  -14.8840 O.2    11  ASN11      -0.2715
     17  CB       -28.5460    8.2160  -16.6030 C.3    11  ASN11       0.1195
     18  CG       -27.2250    7.7070  -17.1550 C.2    11  ASN11       0.2630
     19  OD1      -26.5370    6.9120  -16.5200 O.2    11  ASN11      -0.2716
     20  ND2      -26.8850    8.1430  -18.3630 N.am   11  ASN11      -0.0877
     21  N        -27.9080   11.1110  -15.3730 N.am   12  ASN12      -0.1958
     22  CA       -27.1520   12.3650  -15.3090 C.3    12  ASN12       0.1819
     23  C        -27.1060   12.9890  -13.9140 C.2    12  ASN12       0.2621
     24  O        -26.0550   13.3880  -13.4160 O.2    12  ASN12      -0.2715
     25  CB       -27.8150   13.3740  -16.2520 C.3    12  ASN12       0.1195
     26  CG       -27.1230   14.7430  -16.2680 C.2    12  ASN12       0.2630
     27  OD1      -27.7990   15.7730  -16.3740 O.2    12  ASN12      -0.2716
     28  ND2      -25.7820   14.7570  -16.2010 N.am   12  ASN12      -0.0877
     29  N        -28.2720   13.0870  -13.2980 N.am   13  ASN13      -0.1972
     30  CA       -28.3780   13.6450  -11.9650 C.3    13  ASN13       0.1688
     31  C        -29.5950   13.1180  -11.1700 C.2    13  ASN13       0.2292
     32  O        -30.6830   12.8600  -11.7330 O.2    13  ASN13      -0.2864
     33  CB       -28.4110   15.1670  -12.0680 C.3    13  ASN13       0.1181
     34  CG       -29.6080   15.6780  -12.8880 C.2    13  ASN13       0.2629
     35  OD1      -30.7330   15.1130  -12.8450 O.2    13  ASN13      -0.2716
     36  ND2      -29.3760   16.7730  -13.6330 N.am   13  ASN13      -0.0877
     37  N        -26.4930    4.0100  -13.0860 N.3    69  LYS69      -0.1245
     38  CA       -27.7370    3.2410  -13.1860 C.3    69  LYS69       0.1561
     39  C        -27.7880    2.2880  -14.3860 C.2    69  LYS69       0.2260
     40  O        -28.5890    1.3600  -14.4190 O.2    69  LYS69      -0.2867
     41  CB       -28.9770    4.1480  -13.1650 C.3    69  LYS69       0.0271
     42  CG       -29.2630    4.8890  -14.4720 C.3    69  LYS69       0.0035
     43  CD       -30.7710    4.9290  -14.8230 C.3    69  LYS69       0.0206
     44  CE       -31.5160    6.0910  -14.2010 C.3    69  LYS69       0.1093
     45  NZ       -32.6520    6.5680  -15.0380 N.3    69  LYS69      -0.1314
     46  N        -41.2260   11.0730  -20.7260 N.3   203  ASP203     -0.1239
     47  CA       -40.0110   11.5140  -20.0610 C.3   203  ASP203      0.1674
     48  C        -38.7630   11.1790  -20.8430 C.2   203  ASP203      0.2266
     49  O        -38.2140   10.0790  -20.6930 O.2   203  ASP203     -0.2867
     50  CB       -39.9140   10.9100  -18.6600 C.3   203  ASP203      0.1410
     51  CG       -38.5730   11.2160  -17.9580 C.2   203  ASP203      0.3668
     52  OD1      -38.5140   11.0420  -16.7140 O.co2 203  ASP203     -0.2456
     53  OD2      -37.5740   11.6070  -18.6170 O.co2 203  ASP203     -0.2456
     54  N        -35.0470   11.7890  -20.7080 N.3   205  GLY205     -0.1210
     55  CA       -34.0420   12.3110  -19.7970 C.3   205  GLY205      0.1956
     56  C        -32.6500   12.3120  -20.4090 C.2   205  GLY205      0.2612
     57  O        -32.4730   12.6600  -21.5580 O.2   205  GLY205     -0.2717
     58  N        -31.6500   11.9280  -19.6400 N.am  206  HIS206     -0.1961
     59  CA       -30.3010   12.0070  -20.1410 C.3   206  HIS206      0.1787
     60  C        -30.0020   10.8130  -21.0620 C.2   206  HIS206      0.2621
     61  O        -29.2490   10.9400  -22.0340 O.2   206  HIS206     -0.2715
     62  CB       -29.3470   12.1290  -18.9490 C.3   206  HIS206      0.0785
     63  CG       -27.8800   11.9600  -19.2830 C.ar  206  HIS206      0.0821
     64  ND1      -27.2120   10.7920  -19.0490 N.ar  206  HIS206     -0.2267
     65  CD2      -26.9710   12.8490  -19.7510 C.ar  206  HIS206      0.1154
     66  CE1      -25.9320   10.9420  -19.4000 C.ar  206  HIS206      0.1986
     67  NE2      -25.7730   12.1680  -19.8290 N.ar  206  HIS206     -0.2212
     68  N        -30.6210    9.6640  -20.7780 N.am  207  SER207     -0.1936
     69  CA       -30.2760    8.4340  -21.4930 C.3   207  SER207      0.2055
     70  C        -31.4570    7.5840  -21.9270 C.2   207  SER207      0.2643
     71  O        -31.3190    6.7480  -22.8190 O.2   207  SER207     -0.2714
     72  CB       -29.2950    7.6010  -20.6800 C.3   207  SER207      0.2130
     73  OG       -29.9460    6.7560  -19.7710 O.3   207  SER207     -0.2179
     74  N        -32.6080    7.7940  -21.2970 N.am  208  SER208     -0.1949
     75  CA       -33.7690    6.9650  -21.5710 C.3   208  SER208      0.1924
     76  C        -34.9910    7.7920  -21.9240 C.2   208  SER208      0.2314
     77  O        -35.3090    8.8180  -21.2980 O.2   208  SER208     -0.2863
     78  CB       -34.1240    6.0670  -20.3800 C.3   208  SER208      0.2116
     79  OG       -33.0340    5.2580  -19.9490 O.3   208  SER208     -0.2180
     80  N        -30.7800   12.6450  -23.6990 N.3   234  GLY234     -0.1225
     81  CA       -29.9060   13.7840  -23.8940 C.3   234  GLY234      0.1811
     82  C        -28.5230   13.3920  -24.3820 C.2   234  GLY234      0.2280
     83  O        -27.9900   14.0280  -25.2930 O.2   234  GLY234     -0.2866
     84  N        -25.9950   14.8790  -27.3680 N.3   238  ASP238     -0.1239
     85  CA       -24.6820   15.4190  -27.0510 C.3   238  ASP238      0.1674
     86  C        -23.6240   14.8540  -28.0210 C.2   238  ASP238      0.2266
     87  O        -22.7970   15.6000  -28.5430 O.2   238  ASP238     -0.2867
     88  CB       -24.3380   15.1520  -25.5640 C.3   238  ASP238      0.1410
     89  CG       -25.2320   15.9570  -24.5930 C.2   238  ASP238      0.3668
     90  OD1      -25.8750   16.9380  -25.0400 O.co2 238  ASP238     -0.2456
     91  OD2      -25.3050   15.6100  -23.3850 O.co2 238  ASP238     -0.2456
     92  N        -22.8210   19.6900  -25.0200 N.3   272  GLU272     -0.1245
     93  CA       -23.9190   19.7010  -24.0470 C.3   272  GLU272      0.1567
     94  C        -24.3860   21.1300  -23.7100 C.2   272  GLU272      0.2260
     95  O        -25.5720   21.4340  -23.8140 O.2   272  GLU272     -0.2867
     96  CB       -23.4840   18.9400  -22.7780 C.3   272  GLU272      0.0388
     97  CG       -24.5750   18.1460  -22.0910 C.3   272  GLU272      0.1160
     98  CD       -24.9790   18.7360  -20.7460 C.2   272  GLU272      0.3649
     99  OE1      -24.7880   19.9730  -20.5410 O.co2 272  GLU272     -0.2457
    100  OE2      -25.4920   17.9530  -19.8920 O.co2 272  GLU272     -0.2457
    101  N        -25.9600   23.0200  -26.7350 N.3   275  LYS275     -0.1231
    102  CA       -27.2750   22.4170  -26.9210 C.3   275  LYS275      0.1693
    103  C        -28.3460   22.9990  -25.9830 C.2   275  LYS275      0.2591
    104  O        -29.4060   23.4720  -26.4470 O.2   275  LYS275     -0.2718
    105  CB       -27.1420   20.9060  -26.7300 C.3   275  LYS275      0.0285
    106  CG       -28.4350   20.1320  -26.5640 C.3   275  LYS275      0.0035
    107  CD       -28.1190   18.6620  -26.2710 C.3   275  LYS275      0.0206
    108  CE       -28.1780   18.3180  -24.7830 C.3   275  LYS275      0.1093
    109  NZ       -29.5130   17.7610  -24.3830 N.3   275  LYS275     -0.1314
    110  N        -28.0830   22.9600  -24.6730 N.am  276  LYS276     -0.1980
    111  CA       -28.9680   23.6130  -23.7110 C.3   276  LYS276      0.1596
    112  C        -29.2840   25.0500  -24.1640 C.2   276  LYS276      0.2287
    113  O        -30.4240   25.5150  -24.0300 O.2   276  LYS276     -0.2864
    114  CB       -28.3550   23.6070  -22.3110 C.3   276  LYS276      0.0298
    115  CG       -28.6320   22.3560  -21.4860 C.3   276  LYS276      0.0038
    116  CD       -27.3910   21.9450  -20.6850 C.3   276  LYS276      0.0206
    117  CE       -27.7230   21.3610  -19.3260 C.3   276  LYS276      0.1093
    118  NZ       -28.3750   22.3590  -18.4250 N.3   276  LYS276     -0.1314
    119  N        -31.7690   25.5860  -26.9620 N.3   279  SER279     -0.1217
    120  CA       -33.1410   25.2970  -26.5520 C.3   279  SER279      0.1889
    121  C        -33.8760   26.6040  -26.2300 C.2   279  SER279      0.2288
    122  O        -35.0940   26.6350  -26.1080 O.2   279  SER279     -0.2866
    123  CB       -33.1590   24.3490  -25.3470 C.3   279  SER279      0.2089
    124  OG       -32.7660   23.0310  -25.7100 O.3   279  SER279     -0.2183
    125  N        -38.7550   15.5670  -17.9810 N.3   342  GLY342     -0.1210
    126  CA       -37.4590   15.0990  -18.4390 C.3   342  GLY342      0.1956
    127  C        -36.6610   16.1800  -19.1370 C.2   342  GLY342      0.2612
    128  O        -37.1670   16.9240  -19.9710 O.2   342  GLY342     -0.2717
    129  N        -35.3870   16.2430  -18.7990 N.am  343  GLY343     -0.1942
    130  CA       -34.5250   17.2960  -19.2870 C.3   343  GLY343      0.2014
    131  C        -34.5790   17.6050  -20.7700 C.2   343  GLY343      0.2639
    132  O        -34.6020   18.7810  -21.1410 O.2   343  GLY343     -0.2714
    133  N        -34.5800   16.5790  -21.6220 N.am  344  THR344     -0.1950
    134  CA       -34.4230   16.8260  -23.0510 C.3   344  THR344      0.1897
    135  C        -35.7200   17.0440  -23.7780 C.2   344  THR344      0.2313
    136  O        -35.7240   17.1830  -24.9900 O.2   344  THR344     -0.2863
    137  CB       -33.5400   15.7790  -23.8060 C.3   344  THR344      0.1794
    138  OG1      -33.5590   14.5190  -23.1380 O.3   344  THR344     -0.2208
    139  CG2      -32.0980   16.2770  -23.8810 C.3   344  THR344      0.0378
    140  N        -36.9090   19.7280  -23.4400 N.3   346  ARG346     -0.1231
    141  CA       -36.8410   21.1840  -23.4340 C.3   346  ARG346      0.1694
    142  C        -36.4120   21.7280  -24.7970 C.2   346  ARG346      0.2591
    143  O        -36.5450   22.9390  -25.0670 O.2   346  ARG346     -0.2718
    144  CB       -35.9090   21.6970  -22.3170 C.3   346  ARG346      0.0321
    145  CG       -36.4580   21.5300  -20.9180 C.3   346  ARG346      0.0489
    146  CD       -35.4010   21.6640  -19.8770 C.3   346  ARG346      0.2205
    147  NE       -36.0230   21.6270  -18.5520 N.pl3 346  ARG346     -0.0865
    148  CZ       -35.3650   21.4610  -17.4020 C.cat 346  ARG346      0.5346
    149  NH1      -34.0410   21.3090  -17.3980 N.pl3 346  ARG346      0.1354
    150  NH2      -36.0370   21.4360  -16.2530 N.pl3 346  ARG346      0.1354
    151  N        -35.8940   20.8170  -25.6300 N.am  347  ILE347     -0.1980
    152  CA       -35.5450   21.0740  -27.0230 C.3   347  ILE347      0.1595
    153  C        -36.8260   21.2510  -27.8310 C.2   347  ILE347      0.2287
    154  O        -37.6320   20.3290  -27.9260 O.2   347  ILE347     -0.2864
    155  CB       -34.8360   19.8450  -27.6260 C.3   347  ILE347      0.0276
    156  CG1      -33.6810   19.3930  -26.7650 C.3   347  ILE347      0.0022
    157  CG2      -34.3570   20.1270  -29.0090 C.3   347  ILE347      0.0022
    158  CD1      -32.9540   18.2320  -27.3710 C.3   347  ILE347      0.0001
    159  N        -38.9120   18.2060  -13.3410 N.3   369  ASP369     -0.1239
    160  CA       -37.5450   17.9160  -12.9100 C.3   369  ASP369      0.1674
    161  C        -37.6290   17.2510  -11.5520 C.2   369  ASP369      0.2266
    162  O        -36.8100   16.4120  -11.1910 O.2   369  ASP369     -0.2867
    163  CB       -36.7440   19.2290  -12.7830 C.3   369  ASP369      0.1410
    164  CG       -35.7330   19.4350  -13.9250 C.2   369  ASP369      0.3668
    165  OD1      -35.7430   18.6330  -14.8900 O.co2 369  ASP369     -0.2456
    166  OD2      -34.9130   20.3880  -13.8640 O.co2 369  ASP369     -0.2456
    167  N        -40.7880   13.1460  -10.6260 N.3   372  ILE372     -0.1245
    168  CA       -40.5040   11.7340  -10.3750 C.3   372  ILE372      0.1561
    169  C        -40.0320   11.5800   -8.9290 C.2   372  ILE372      0.2260
    170  O        -40.3540   10.5960   -8.2550 O.2   372  ILE372     -0.2867
    171  CB       -39.4560   11.0890  -11.3650 C.3   372  ILE372      0.0252
    172  CG1      -39.7840   11.3850  -12.8220 C.3   372  ILE372      0.0019
    173  CG2      -39.3810    9.6080  -11.1830 C.3   372  ILE372      0.0019
    174  CD1      -38.9620   12.5940  -13.4220 C.3   372  ILE372      0.0001
@<TRIPOS>BOND
     1   157   155    1
     2    87    86    2
     3    86    85    1
     4   154   153    2
     5   153   152    1
     6   155   152    1
     7   155   156    1
     8   158   156    1
     9    84    85    1
    10    85    88    1
    11   152   151    1
    12   119   120    1
    13   102   101    1
    14   102   105    1
    15   102   103    1
    16   105   106    1
    17   106   107    1
    18   120   121    1
    19   120   123    1
    20   104   103    2
    21   107   108    1
    22   121   122    2
    23   103   110   am
    24   124   123    1
    25   151   142   am
    26    88    89    1
    27    83    82    2
    28   143   142    2
    29    90    89   ar
    30    92    93    1
    31   136   135    2
    32   142   141    1
    33   108   109    1
    34   110   111    1
    35    89    91   ar
    36    82    81    1
    37   112   113    2
    38   112   111    1
    39    93    94    1
    40    93    96    1
    41    81    80    1
    42   139   137    1
    43    95    94    2
    44   137   138    1
    45   137   134    1
    46   135   134    1
    47   111   114    1
    48   140   141    1
    49   141   144    1
    50   134   133    1
    51    71    70    2
    52    96    97    1
    53   144   145    1
    54   114   115    1
    55    97    98    1
    56    61    60    2
    57    70    69    1
    58    70    74   am
    59    76    75    1
    60    76    77    2
    61   133   131   am
    62    75    74    1
    63    75    78    1
    64    57    56    2
    65    69    68    1
    66    69    72    1
    67   115   116    1
    68   132   131    2
    69    60    68   am
    70    60    59    1
    71   145   146    1
    72    48    49    2
    73    48    47    1
    74   131   130    1
    75    98    99   ar
    76    98   100   ar
    77    46    47    1
    78    54    55    1
    79   116   117    1
    80    72    73    1
    81    56    55    1
    82    56    58   am
    83    78    79    1
    84    59    58    1
    85    59    62    1
    86    47    50    1
    87   128   127    2
    88   146   147    1
    89    67    65   ar
    90    67    66   ar
    91    65    63   ar
    92    66    64   ar
    93   117   118    1
    94   130   129    1
    95    63    64   ar
    96    63    62    1
    97   127   129   am
    98   127   126    1
    99    50    51    1
   100    53    51   ar
   101   147   148    2
   102   126   125    1
   103    20    18   am
   104    51    52   ar
   105   148   149    1
   106   148   150    1
   107    18    17    1
   108    18    19    2
   109    17    14    1
   110    27    26    2
   111    26    25    1
   112    26    28   am
   113    25    22    1
   114    21    22    1
   115    21    15   am
   116    22    23    1
   117    14    15    1
   118    14    13    1
   119    15    16    2
   120    45    44    1
   121   165   164   ar
   122    43    42    1
   123    43    44    1
   124    13    11   am
   125    42    41    1
   126    40    39    2
   127    39    38    1
   128   164   166   ar
   129   164   163    1
   130    23    24    2
   131    23    29   am
   132    36    34   am
   133    11    10    1
   134    11    12    2
   135   174   172    1
   136   159   160    1
   137    29    30    1
   138    38    41    1
   139    38    37    1
   140    10     9    1
   141   160   163    1
   142   160   161    1
   143    34    35    2
   144    34    33    1
   145   172   171    1
   146    33    30    1
   147    30    31    1
   148    32    31    2
   149   161   162    2
   150   171   173    1
   151   171   168    1
   152     8     6   ar
   153     7     6   ar
   154   167   168    1
   155     6     5    1
   156   168   169    1
   157     4     3    2
   158     5     2    1
   159   169   170    2
   160     3     2    1
   161     2     1    1
