@<TRIPOS>MOLECULE
tmp/3c7oA00.pdb
 125 124 0 0 0
SMALL
GASTEIGER

@<TRIPOS>ATOM
      1  N        -12.1880   37.2820   18.1440 N.3    55  SER55      -0.1202
      2  CA       -13.1620   36.2080   18.3220 C.3    55  SER55       0.2020
      3  C        -13.1970   35.3160   17.0730 C.2    55  SER55       0.2618
      4  O        -14.0720   34.4450   16.9470 O.2    55  SER55      -0.2717
      5  CB       -14.5570   36.7840   18.6270 C.3    55  SER55       0.2103
      6  OG       -15.1740   37.3310   17.4640 O.3    55  SER55      -0.2182
      7  N        -12.2390   35.5400   16.1620 N.am   56  PHE56      -0.1975
      8  CA       -12.1410   34.8170   14.8660 C.3    56  PHE56       0.1639
      9  C        -13.2760   35.1480   13.8690 C.2    56  PHE56       0.2290
     10  O        -13.4410   34.4520   12.8620 O.2    56  PHE56      -0.2864
     11  CB       -12.0250   33.2850   15.0810 C.3    56  PHE56       0.0560
     12  CG       -10.9760   32.8780   16.0880 C.ar   56  PHE56      -0.0200
     13  CD1       -9.7770   33.5920   16.2130 C.ar   56  PHE56      -0.0042
     14  CD2      -11.1760   31.7700   16.9010 C.ar   56  PHE56      -0.0042
     15  CE1       -8.8020   33.2260   17.1530 C.ar   56  PHE56      -0.0003
     16  CE2      -10.2050   31.3960   17.8450 C.ar   56  PHE56      -0.0003
     17  CZ        -9.0170   32.1200   17.9640 C.ar   56  PHE56      -0.0000
     18  N        -10.3540   28.5660    8.6070 N.3   101  TRP101     -0.1241
     19  CA        -9.2870   28.6590    9.6130 C.3   101  TRP101      0.1605
     20  C         -8.1080   27.7700    9.2620 C.2   101  TRP101      0.2264
     21  O         -8.2960   26.6540    8.7630 O.2   101  TRP101     -0.2867
     22  CB        -9.7770   28.1450   10.9650 C.3   101  TRP101      0.0550
     23  CG       -10.8600   28.9400   11.6140 C.ar  101  TRP101      0.0003
     24  CD1      -11.5350   30.0090   11.1080 C.ar  101  TRP101      0.0946
     25  CD2      -11.4170   28.6800   12.9090 C.ar  101  TRP101      0.0152
     26  NE1      -12.4830   30.4380   12.0210 N.ar  101  TRP101     -0.2442
     27  CE2      -12.4230   29.6320   13.1320 C.ar  101  TRP101      0.0810
     28  CE3      -11.1530   27.7200   13.9040 C.ar  101  TRP101      0.0012
     29  CZ2      -13.1750   29.6650   14.3140 C.ar  101  TRP101      0.0191
     30  CZ3      -11.8920   27.7550   15.0860 C.ar  101  TRP101      0.0001
     31  CH2      -12.8970   28.7250   15.2760 C.ar  101  TRP101      0.0015
     32  N        -14.3710   26.4790   10.8010 N.3   123  SER123     -0.1202
     33  CA       -14.3410   26.4360   12.2750 C.3   123  SER123      0.2020
     34  C        -14.0420   25.0170   12.7770 C.2   123  SER123      0.2619
     35  O        -13.1580   24.3470   12.2610 O.2   123  SER123     -0.2717
     36  CB       -15.6390   26.9680   12.9050 C.3   123  SER123      0.2103
     37  OG       -16.0430   28.2000   12.3280 O.3   123  SER123     -0.2182
     38  N        -14.7820   24.5450   13.7750 N.am  124  GLY124     -0.1956
     39  CA       -14.4320   23.2750   14.4120 C.3   124  GLY124      0.1869
     40  C        -15.2400   22.0860   13.9390 C.2   124  GLY124      0.2309
     41  O        -15.2970   21.0400   14.6310 O.2   124  GLY124     -0.2863
     42  N        -12.4690   19.0240   18.4500 N.3   160  TRP160     -0.1241
     43  CA       -12.4000   20.1170   17.4780 C.3   160  TRP160      0.1605
     44  C        -11.8230   19.5640   16.1890 C.2   160  TRP160      0.2264
     45  O        -10.6300   19.2810   16.1190 O.2   160  TRP160     -0.2867
     46  CB       -11.5050   21.2620   17.9820 C.3   160  TRP160      0.0550
     47  CG       -12.0300   22.0200   19.1580 C.ar  160  TRP160      0.0003
     48  CD1      -13.3250   22.1540   19.5420 C.ar  160  TRP160      0.0946
     49  CD2      -11.2480   22.7700   20.0970 C.ar  160  TRP160      0.0152
     50  NE1      -13.4030   22.9370   20.6750 N.ar  160  TRP160     -0.2442
     51  CE2      -12.1420   23.3340   21.0290 C.ar  160  TRP160      0.0810
     52  CE3       -9.8800   23.0260   20.2290 C.ar  160  TRP160      0.0012
     53  CZ2      -11.7150   24.1440   22.0820 C.ar  160  TRP160      0.0191
     54  CZ3       -9.4500   23.8290   21.2800 C.ar  160  TRP160      0.0001
     55  CH2      -10.3690   24.3740   22.1960 C.ar  160  TRP160      0.0015
     56  N        -10.3850   20.3280   13.3330 N.3   162  PHE162     -0.1241
     57  CA        -9.8170   21.5040   12.6950 C.3   162  PHE162      0.1605
     58  C         -8.3000   21.4130   12.5530 C.2   162  PHE162      0.2264
     59  O         -7.7480   20.3230   12.6510 O.2   162  PHE162     -0.2867
     60  CB       -10.3300   22.7990   13.3860 C.3   162  PHE162      0.0534
     61  CG        -9.7380   23.0850   14.7530 C.ar  162  PHE162     -0.0203
     62  CD1      -10.0450   24.2890   15.3850 C.ar  162  PHE162     -0.0042
     63  CD2       -8.8580   22.2060   15.3840 C.ar  162  PHE162     -0.0042
     64  CE1       -9.5250   24.5970   16.6250 C.ar  162  PHE162     -0.0003
     65  CE2       -8.3000   22.5190   16.6350 C.ar  162  PHE162     -0.0003
     66  CZ        -8.6500   23.7170   17.2550 C.ar  162  PHE162     -0.0000
     67  N         -3.5920   19.5700   22.0430 N.3   224  PHE224     -0.1227
     68  CA        -4.5610   20.6730   21.9860 C.3   224  PHE224      0.1736
     69  C         -5.0490   20.9490   20.5540 C.2   224  PHE224      0.2595
     70  O         -6.2500   20.8630   20.2690 O.2   224  PHE224     -0.2718
     71  CB        -3.9830   21.9540   22.6100 C.3   224  PHE224      0.0547
     72  CG        -5.0370   22.9610   22.9930 C.ar  224  PHE224     -0.0202
     73  CD1       -6.2340   22.5380   23.5760 C.ar  224  PHE224     -0.0042
     74  CD2       -4.8250   24.3200   22.7960 C.ar  224  PHE224     -0.0042
     75  CE1       -7.2150   23.4640   23.9470 C.ar  224  PHE224     -0.0003
     76  CE2       -5.7950   25.2510   23.1640 C.ar  224  PHE224     -0.0003
     77  CZ        -6.9820   24.8210   23.7470 C.ar  224  PHE224     -0.0000
     78  N         -4.1080   21.2810   19.6650 N.am  225  GLU225     -0.1979
     79  CA        -4.4430   21.7160   18.3130 C.3   225  GLU225      0.1602
     80  C         -3.1590   21.7430   17.4840 C.2   225  GLU225      0.2287
     81  O         -2.1350   21.2190   17.9180 O.2   225  GLU225     -0.2864
     82  CB        -5.1040   23.1020   18.3660 C.3   225  GLU225      0.0415
     83  CG        -4.2970   24.2010   19.0980 C.3   225  GLU225      0.1163
     84  CD        -5.0860   25.5200   19.2380 C.2   225  GLU225      0.3649
     85  OE1       -6.0930   25.6940   18.5240 O.co2 225  GLU225     -0.2457
     86  OE2       -4.6930   26.3920   20.0390 O.co2 225  GLU225     -0.2457
     87  N         -3.2140   23.6520   27.7250 N.3   244  PHE244     -0.1241
     88  CA        -2.9070   24.6240   28.7880 C.3   244  PHE244      0.1605
     89  C         -3.4720   24.1920   30.1380 C.2   244  PHE244      0.2264
     90  O         -3.2400   24.8630   31.1500 O.2   244  PHE244     -0.2867
     91  CB        -3.5020   25.9950   28.4330 C.3   244  PHE244      0.0534
     92  CG        -2.8680   26.6450   27.2350 C.ar  244  PHE244     -0.0203
     93  CD1       -1.8280   27.5530   27.3950 C.ar  244  PHE244     -0.0042
     94  CD2       -3.3200   26.3510   25.9490 C.ar  244  PHE244     -0.0042
     95  CE1       -1.2410   28.1660   26.2840 C.ar  244  PHE244     -0.0003
     96  CE2       -2.7320   26.9470   24.8240 C.ar  244  PHE244     -0.0003
     97  CZ        -1.6950   27.8620   24.9970 C.ar  244  PHE244     -0.0000
     98  N          5.8850   28.9680   24.0970 N.3   278  ASN278     -0.1240
     99  CA         4.7480   29.8130   23.7610 C.3   278  ASN278      0.1653
    100  C          5.2530   31.1690   23.2660 C.2   278  ASN278      0.2266
    101  O          6.2340   31.6790   23.7990 O.2   278  ASN278     -0.2867
    102  CB         3.8310   29.9780   24.9630 C.3   278  ASN278      0.1155
    103  CG         2.4850   30.5300   24.5800 C.2   278  ASN278      0.2627
    104  OD1        2.2650   31.7290   24.6670 O.2   278  ASN278     -0.2716
    105  ND2        1.5910   29.6680   24.1090 N.am  278  ASN278     -0.0877
    106  N          3.4020   38.3080   27.3270 N.3   285  GLY285     -0.1210
    107  CA         2.0190   37.8430   27.4310 C.3   285  GLY285      0.1956
    108  C          1.8960   36.3630   27.1260 C.2   285  GLY285      0.2612
    109  O          2.6440   35.5290   27.6800 O.2   285  GLY285     -0.2717
    110  N          0.9710   36.0410   26.2250 N.am  286  GLY286     -0.1942
    111  CA         0.7090   34.6520   25.8390 C.3   286  GLY286      0.2014
    112  C         -0.4900   34.5440   24.9160 C.2   286  GLY286      0.2639
    113  O         -1.3170   35.4500   24.8340 O.2   286  GLY286     -0.2714
    114  N         -0.5880   33.4240   24.2220 N.am  287  GLY287     -0.1939
    115  CA        -1.7210   33.1900   23.3600 C.3   287  GLY287      0.2014
    116  C         -1.5890   31.8150   22.7580 C.2   287  GLY287      0.2638
    117  O         -0.8200   30.9870   23.2300 O.2   287  GLY287     -0.2714
    118  N         -2.3520   31.5550   21.7140 N.am  288  ASN288     -0.1972
    119  CA        -2.2260   30.2560   21.0940 C.3   288  ASN288      0.1688
    120  C         -0.9510   30.1990   20.2500 C.2   288  ASN288      0.2292
    121  O         -0.3710   31.2320   19.8910 O.2   288  ASN288     -0.2864
    122  CB        -3.5090   29.8110   20.3470 C.3   288  ASN288      0.1181
    123  CG        -3.9810   30.8050   19.3020 C.2   288  ASN288      0.2629
    124  OD1       -3.2220   31.2390   18.4390 O.2   288  ASN288     -0.2716
    125  ND2       -5.2700   31.1370   19.3560 N.am  288  ASN288     -0.0877
@<TRIPOS>BOND
     1    18    19    1
     2    21    20    2
     3    20    19    1
     4    19    22    1
     5    32    33    1
     6    22    23    1
     7    24    23   ar
     8    24    26   ar
     9    23    25   ar
    10    26    27   ar
    11    35    34    2
    12    33    34    1
    13    33    36    1
    14    37    36    1
    15    58    59    2
    16    58    57    1
    17    57    56    1
    18    57    60    1
    19    34    38   am
    20    10     9    2
    21    25    27   ar
    22    25    28   ar
    23    27    29   ar
    24    60    61    1
    25    38    39    1
    26     9     8    1
    27    28    30   ar
    28    40    39    1
    29    40    41    2
    30    29    31   ar
    31    61    63   ar
    32    61    62   ar
    33     8    11    1
    34     8     7    1
    35    11    12    1
    36    30    31   ar
    37    63    65   ar
    38    62    64   ar
    39    12    13   ar
    40    12    14   ar
    41    45    44    2
    42     7     3   am
    43    44    43    1
    44    13    15   ar
    45    64    66   ar
    46    65    66   ar
    47    14    16   ar
    48     4     3    2
    49     3     2    1
    50    15    17   ar
    51     6     5    1
    52    43    46    1
    53    43    42    1
    54    80    81    2
    55    80    79    1
    56    16    17   ar
    57    46    47    1
    58     1     2    1
    59    79    82    1
    60    79    78    1
    61     2     5    1
    62    82    83    1
    63   124   123    2
    64    85    84   ar
    65    83    84    1
    66    47    48   ar
    67    47    49   ar
    68    84    86   ar
    69   123   125   am
    70   123   122    1
    71    48    50   ar
    72    78    69   am
    73   121   120    2
    74    49    52   ar
    75    49    51   ar
    76    52    54   ar
    77   120   119    1
    78    70    69    2
    79   122   119    1
    80    69    68    1
    81    50    51   ar
    82    51    53   ar
    83   119   118    1
    84    54    55   ar
    85   118   116   am
    86    68    67    1
    87    68    71    1
    88    53    55   ar
    89    71    72    1
    90   116   117    2
    91   116   115    1
    92    74    72   ar
    93    74    76   ar
    94    72    73   ar
    95    76    77   ar
    96   100    99    1
    97   100   101    2
    98   115   114    1
    99    73    75   ar
   100    77    75   ar
   101    99    98    1
   102    99   102    1
   103   105   103   am
   104   114   112   am
   105   103   104    2
   106   103   102    1
   107    96    97   ar
   108    96    94   ar
   109   113   112    2
   110   112   111    1
   111    97    95   ar
   112   111   110    1
   113    94    92   ar
   114   110   108   am
   115    95    93   ar
   116   108   107    1
   117   108   109    2
   118    92    93   ar
   119    92    91    1
   120   106   107    1
   121    87    88    1
   122    91    88    1
   123    88    89    1
   124    89    90    2
