@<TRIPOS>MOLECULE
tmp/3c7pA00.pdb
 150 146 0 0 0
SMALL
GASTEIGER

@<TRIPOS>ATOM
      1  N        -12.7270    6.2790   11.0380 N.3    90  GLN90      -0.1245
      2  CA       -12.4100    5.1120   10.2200 C.3    90  GLN90       0.1566
      3  C        -12.5350    3.8360   11.0280 C.2    90  GLN90       0.2260
      4  O        -12.6560    3.8790   12.2510 O.2    90  GLN90      -0.2867
      5  CB       -10.9730    5.2090    9.6850 C.3    90  GLN90       0.0367
      6  CG        -9.8960    5.3260   10.7860 C.3    90  GLN90       0.0905
      7  CD        -9.1250    4.0320   11.0340 C.2    90  GLN90       0.2608
      8  OE1       -9.7070    2.9570   11.1670 O.2    90  GLN90      -0.2717
      9  NE2       -7.8020    4.1410   11.1120 N.am   90  GLN90      -0.0878
     10  N        -11.1420   -0.5420   10.8350 N.3    92  HIS92      -0.1241
     11  CA       -10.2840   -1.5110   10.1800 C.3    92  HIS92       0.1621
     12  C        -10.3500   -2.7760   11.0030 C.2    92  HIS92       0.2264
     13  O        -11.0200   -2.8130   12.0380 O.2    92  HIS92      -0.2867
     14  CB        -8.8410   -1.0200   10.1520 C.3    92  HIS92       0.0745
     15  CG        -8.2930   -0.7000   11.5060 C.ar   92  HIS92       0.0817
     16  ND1       -8.4980    0.5150   12.1230 N.ar   92  HIS92      -0.2268
     17  CD2       -7.5790   -1.4510   12.3780 C.ar   92  HIS92       0.1154
     18  CE1       -7.9310    0.4990   13.3180 C.ar   92  HIS92       0.1986
     19  NE2       -7.3660   -0.6820   13.4960 N.ar   92  HIS92      -0.2212
     20  N         -8.0530   -6.5680   12.2750 N.3    94  HIS94      -0.1241
     21  CA        -6.7920   -7.2440   12.5290 C.3    94  HIS94       0.1621
     22  C         -7.2470   -8.6920   12.4070 C.2    94  HIS94       0.2264
     23  O         -8.3000   -9.0520   12.9280 O.2    94  HIS94      -0.2867
     24  CB        -6.2880   -6.9550   13.9460 C.3    94  HIS94       0.0745
     25  CG        -5.9430   -5.5170   14.1770 C.ar   94  HIS94       0.0817
     26  ND1       -4.6980   -4.9930   13.8950 N.ar   94  HIS94      -0.2268
     27  CD2       -6.6940   -4.4830   14.6220 C.ar   94  HIS94       0.1154
     28  CE1       -4.6980   -3.6980   14.1600 C.ar   94  HIS94       0.1986
     29  NE2       -5.8970   -3.3630   14.6010 N.ar   94  HIS94      -0.2212
     30  N        -12.0380   -2.6530   14.6120 N.3   117  HIS117     -0.1241
     31  CA       -11.7630   -1.4440   15.3750 C.3   117  HIS117      0.1621
     32  C        -12.3830   -0.2150   14.7260 C.2   117  HIS117      0.2264
     33  O        -12.0060    0.1660   13.6210 O.2   117  HIS117     -0.2867
     34  CB       -10.2510   -1.2340   15.5140 C.3   117  HIS117      0.0745
     35  CG        -9.5960   -2.1940   16.4550 C.ar  117  HIS117      0.0817
     36  ND1       -8.2330   -2.3990   16.4830 N.ar  117  HIS117     -0.2268
     37  CD2      -10.1170   -2.9970   17.4120 C.ar  117  HIS117      0.1154
     38  CE1       -7.9420   -3.2870   17.4160 C.ar  117  HIS117      0.1986
     39  NE2       -9.0660   -3.6650   17.9950 N.ar  117  HIS117     -0.2212
     40  N        -12.5760    3.5460   15.0030 N.3   119  VAL119     -0.1245
     41  CA       -11.8090    4.6280   15.6130 C.3   119  VAL119      0.1561
     42  C        -12.5470    5.9600   15.6560 C.2   119  VAL119      0.2260
     43  O        -13.0680    6.4160   14.6400 O.2   119  VAL119     -0.2867
     44  CB       -10.4740    4.8030   14.8570 C.3   119  VAL119      0.0252
     45  CG1       -9.5960    5.8400   15.5480 C.3   119  VAL119      0.0019
     46  CG2       -9.7610    3.4720   14.7830 C.3   119  VAL119      0.0019
     47  N         -8.3620   15.2780   14.5210 N.3   128  PHE128     -0.1227
     48  CA        -7.7460   13.9870   14.7750 C.3   128  PHE128      0.1736
     49  C         -6.3150   14.1430   15.2820 C.2   128  PHE128      0.2596
     50  O         -5.9180   13.5100   16.2660 O.2   128  PHE128     -0.2718
     51  CB        -7.7700   13.1890   13.4710 C.3   128  PHE128      0.0547
     52  CG        -7.6140   11.7150   13.6450 C.ar  128  PHE128     -0.0202
     53  CD1       -8.0740   11.0780   14.7910 C.ar  128  PHE128     -0.0042
     54  CD2       -7.0820   10.9450   12.6160 C.ar  128  PHE128     -0.0042
     55  CE1       -8.0150    9.7020   14.9070 C.ar  128  PHE128     -0.0003
     56  CE2       -7.0200    9.5630   12.7230 C.ar  128  PHE128     -0.0003
     57  CZ        -7.4910    8.9440   13.8740 C.ar  128  PHE128     -0.0000
     58  N         -5.5470   14.9930   14.6050 N.am  129  GLY129     -0.1957
     59  CA        -4.1610   15.2170   14.9810 C.3   129  GLY129      0.1869
     60  C         -3.9530   15.7750   16.3760 C.2   129  GLY129      0.2309
     61  O         -3.0420   15.3540   17.0880 O.2   129  GLY129     -0.2863
     62  N         -4.7390   13.0920   19.2040 N.3   132  VAL132     -0.1231
     63  CA        -3.7070   12.1170   19.5460 C.3   132  VAL132      0.1692
     64  C         -2.5590   12.6860   20.3700 C.2   132  VAL132      0.2591
     65  O         -1.5040   12.0700   20.4910 O.2   132  VAL132     -0.2718
     66  CB        -3.1400   11.4190   18.2910 C.3   132  VAL132      0.0266
     67  CG1       -4.2200   10.5640   17.6550 C.3   132  VAL132      0.0020
     68  CG2       -2.6220   12.4410   17.3040 C.3   132  VAL132      0.0020
     69  N         -2.7770   13.8680   20.9340 N.am  133  GLN133     -0.1979
     70  CA        -1.7930   14.5200   21.7910 C.3   133  GLN133      0.1601
     71  C         -2.4270   14.6290   23.1750 C.2   133  GLN133      0.2287
     72  O         -1.8740   15.2520   24.0840 O.2   133  GLN133     -0.2864
     73  CB        -1.4680   15.9170   21.2620 C.3   133  GLN133      0.0394
     74  CG        -0.7450   15.9220   19.9200 C.3   133  GLN133      0.0908
     75  CD        -0.4590   17.3280   19.4290 C.2   133  GLN133      0.2608
     76  OE1       -0.3140   18.2550   20.2280 O.2   133  GLN133     -0.2717
     77  NE2       -0.3480   17.4910   18.1170 N.am  133  GLN133     -0.0878
     78  N         -8.7770    9.7660   21.9760 N.3   138  LEU138     -0.1245
     79  CA        -9.4460    8.7650   21.1510 C.3   138  LEU138      0.1561
     80  C        -10.2810    7.7420   21.9110 C.2   138  LEU138      0.2260
     81  O        -10.0840    7.5060   23.1010 O.2   138  LEU138     -0.2867
     82  CB        -8.4120    7.9990   20.3290 C.3   138  LEU138      0.0270
     83  CG        -7.4230    8.7620   19.4460 C.3   138  LEU138      0.0019
     84  CD1       -6.4960    7.7540   18.7620 C.3   138  LEU138      0.0001
     85  CD2       -8.1720    9.5860   18.4120 C.3   138  LEU138      0.0001
     86  N        -11.7770    3.8260   20.8870 N.3   140  VAL140     -0.1245
     87  CA       -11.8730    2.7930   19.8700 C.3   140  VAL140      0.1561
     88  C        -12.8300    1.7200   20.3480 C.2   140  VAL140      0.2260
     89  O        -12.6910    1.1900   21.4550 O.2   140  VAL140     -0.2867
     90  CB       -10.5100    2.1500   19.5630 C.3   140  VAL140      0.0252
     91  CG1      -10.6650    1.1140   18.4460 C.3   140  VAL140      0.0019
     92  CG2       -9.5120    3.2200   19.1500 C.3   140  VAL140      0.0019
     93  N         -2.7980    3.0370   20.9770 N.3   195  LEU195     -0.1231
     94  CA        -2.9570    2.5960   19.6020 C.3   195  LEU195      0.1693
     95  C         -2.2060    1.2700   19.6290 C.2   195  LEU195      0.2593
     96  O         -1.2450    1.1300   20.3910 O.2   195  LEU195     -0.2718
     97  CB        -2.2610    3.5620   18.6510 C.3   195  LEU195      0.0284
     98  CG        -2.8020    4.9900   18.6030 C.3   195  LEU195      0.0019
     99  CD1       -1.8990    5.8410   17.7170 C.3   195  LEU195      0.0001
    100  CD2       -4.2320    4.9790   18.0720 C.3   195  LEU195      0.0001
    101  N         -2.6230    0.3000   18.8190 N.am  196  THR196     -0.1939
    102  CA        -1.9530   -0.9980   18.8230 C.3   196  THR196      0.2028
    103  C         -0.8800   -1.1620   17.7530 C.2   196  THR196      0.2643
    104  O         -0.3110   -2.2430   17.6030 O.2   196  THR196     -0.2714
    105  CB        -2.9530   -2.1580   18.6910 C.3   196  THR196      0.1808
    106  OG1       -3.5920   -2.0910   17.4150 O.3   196  THR196     -0.2208
    107  CG2       -4.0010   -2.0870   19.8030 C.3   196  THR196      0.0379
    108  N         -0.6260   -0.1050   16.9900 N.am  197  THR197     -0.1937
    109  CA         0.4440   -0.1420   15.9950 C.3   197  THR197      0.2013
    110  C          1.2300    1.1370   16.2040 C.2   197  THR197      0.2484
    111  O          0.7410    2.0810   16.8230 O.2   197  THR197     -0.2729
    112  CB        -0.0600   -0.1340   14.5210 C.3   197  THR197      0.1807
    113  OG1       -0.3430    1.2130   14.1110 O.3   197  THR197     -0.2208
    114  CG2       -1.3130   -0.9870   14.3670 C.3   197  THR197      0.0379
    115  N          2.4770    1.1740   15.7270 N.am  198  PRO198     -0.2715
    116  CA         3.2470    2.4060   15.9010 C.3   198  PRO198      0.1521
    117  C          2.3670    3.5340   15.3480 C.2   198  PRO198      0.2440
    118  O          1.6250    3.3260   14.3820 O.2   198  PRO198     -0.2731
    119  CB         4.4820    2.1410   15.0520 C.3   198  PRO198      0.0310
    120  CG         4.7170    0.6690   15.2890 C.3   198  PRO198      0.0237
    121  CD         3.3100    0.0850   15.1900 C.3   198  PRO198      0.0939
    122  N          2.4500    4.7440   15.9230 N.am  199  PRO199     -0.2727
    123  CA         3.2850    5.1920   17.0430 C.3   199  PRO199      0.1402
    124  C          2.8850    4.7640   18.4610 C.2   199  PRO199      0.2269
    125  O          3.4410    5.2700   19.4320 O.2   199  PRO199     -0.2865
    126  CB         3.2880    6.7080   16.8740 C.3   199  PRO199      0.0296
    127  CG         1.8960    6.9750   16.3800 C.3   199  PRO199      0.0237
    128  CD         1.6980    5.8770   15.3460 C.3   199  PRO199      0.0939
    129  N          0.6070    5.5180   20.4830 N.3   201  LEU201     -0.1245
    130  CA         0.2610    6.6070   21.3900 C.3   201  LEU201      0.1561
    131  C         -0.7740    6.2030   22.4440 C.2   201  LEU201      0.2260
    132  O         -1.7500    5.5140   22.1480 O.2   201  LEU201     -0.2867
    133  CB        -0.2330    7.8060   20.5760 C.3   201  LEU201      0.0270
    134  CG         0.7900    8.2630   19.5270 C.3   201  LEU201      0.0019
    135  CD1        0.1790    9.3380   18.6380 C.3   201  LEU201      0.0001
    136  CD2        2.0420    8.7710   20.2200 C.3   201  LEU201      0.0001
    137  N        -10.4380    2.3740   25.4790 N.3   206  TRP206     -0.1241
    138  CA       -10.9210    1.1950   24.7810 C.3   206  TRP206      0.1605
    139  C        -12.2650    0.7110   25.2980 C.2   206  TRP206      0.2264
    140  O        -12.5030    0.6460   26.5040 O.2   206  TRP206     -0.2867
    141  CB        -9.9080    0.0410   24.8820 C.3   206  TRP206      0.0550
    142  CG        -8.7620    0.1560   23.9280 C.ar  206  TRP206      0.0003
    143  CD1       -7.5540    0.7540   24.1560 C.ar  206  TRP206      0.0946
    144  CD2       -8.7440   -0.2800   22.5630 C.ar  206  TRP206      0.0152
    145  NE1       -6.7880    0.7230   23.0130 N.ar  206  TRP206     -0.2442
    146  CE2       -7.4940    0.0930   22.0210 C.ar  206  TRP206      0.0810
    147  CE3       -9.6660   -0.9480   21.7450 C.ar  206  TRP206      0.0012
    148  CZ2       -7.1400   -0.1780   20.6960 C.ar  206  TRP206      0.0191
    149  CZ3       -9.3150   -1.2190   20.4250 C.ar  206  TRP206      0.0001
    150  CH2       -8.0620   -0.8340   19.9150 C.ar  206  TRP206      0.0015
@<TRIPOS>BOND
     1     5     2    1
     2     5     6    1
     3    14    11    1
     4    14    15    1
     5    11    10    1
     6    11    12    1
     7     2     3    1
     8     2     1    1
     9     6     7    1
    10    12    13    2
    11     3     4    2
    12     7     9   am
    13     7     8    2
    14    15    16   ar
    15    15    17   ar
    16    16    18   ar
    17    20    21    1
    18    17    19   ar
    19    22    21    1
    20    22    23    2
    21    21    24    1
    22    54    56   ar
    23    54    52   ar
    24    56    57   ar
    25    18    19   ar
    26    51    52    1
    27    51    48    1
    28    33    32    2
    29    52    53   ar
    30    57    55   ar
    31    26    28   ar
    32    26    25   ar
    33    24    25    1
    34   113   112    1
    35    28    29   ar
    36    25    27   ar
    37   114   112    1
    38   118   117    2
    39   112   109    1
    40    47    48    1
    41    29    27   ar
    42    58    59    1
    43    58    49   am
    44    30    31    1
    45    43    42    2
    46    32    31    1
    47    48    49    1
    48    46    44    1
    49    53    55   ar
    50    44    45    1
    51    44    41    1
    52    59    60    1
    53    40    41    1
    54   119   120    1
    55   119   116    1
    56   121   120    1
    57   121   115    1
    58    49    50    2
    59   128   122    1
    60   128   127    1
    61   117   116    1
    62   117   122   am
    63    31    34    1
    64    34    35    1
    65    41    42    1
    66   115   116    1
    67   115   110   am
    68   122   123    1
    69   109   110    1
    70   109   108    1
    71   110   111    2
    72    60    61    2
    73   127   126    1
    74    35    36   ar
    75    35    37   ar
    76    36    38   ar
    77   126   123    1
    78   108   103   am
    79   123   124    1
    80    68    66    1
    81    37    39   ar
    82   106   105    1
    83    38    39   ar
    84   104   103    2
    85    67    66    1
    86    99    98    1
    87   103   102    1
    88   100    98    1
    89    77    75   am
    90    66    63    1
    91    85    83    1
    92    91    90    1
    93   124   125    2
    94    98    97    1
    95   135   134    1
    96    97    94    1
    97   105   102    1
    98   105   107    1
    99    84    83    1
   100   101   102    1
   101   101    95   am
   102    92    90    1
   103    62    63    1
   104    75    74    1
   105    75    76    2
   106    83    82    1
   107   134   136    1
   108   134   133    1
   109    63    64    1
   110    90    87    1
   111    94    95    1
   112    94    93    1
   113    95    96    2
   114    87    88    1
   115    87    86    1
   116   150   149   ar
   117   150   148   ar
   118    74    73    1
   119    82    79    1
   120    88    89    2
   121    64    65    2
   122    64    69   am
   123   149   147   ar
   124   129   130    1
   125   133   130    1
   126   148   146   ar
   127    69    70    1
   128    79    80    1
   129    79    78    1
   130    73    70    1
   131   130   131    1
   132   147   144   ar
   133    70    71    1
   134    80    81    2
   135   146   144   ar
   136   146   145   ar
   137   132   131    2
   138   144   142   ar
   139   145   143   ar
   140    71    72    2
   141   142   143   ar
   142   142   141    1
   143   138   141    1
   144   138   139    1
   145   138   137    1
   146   139   140    2
