@<TRIPOS>MOLECULE
tmp/3c7qA00.pdb
 173 164 0 0 0
SMALL
GASTEIGER

@<TRIPOS>ATOM
      1  N         15.8860   73.6900   36.6470 N.3    20  LYS20      -0.1245
      2  CA        14.8530   73.3620   35.6540 C.3    20  LYS20       0.1561
      3  C         15.0300   71.9510   35.1080 C.2    20  LYS20       0.2260
      4  O         16.1540   71.4210   35.0820 O.2    20  LYS20      -0.2867
      5  CB        14.8380   74.3960   34.4950 C.3    20  LYS20       0.0271
      6  CG        14.0050   75.6740   34.7870 C.3    20  LYS20       0.0035
      7  CD        14.0250   76.7070   33.6170 C.3    20  LYS20       0.0206
      8  CE        12.9540   76.4080   32.5300 C.3    20  LYS20       0.1093
      9  NZ        13.4300   76.6370   31.1020 N.3    20  LYS20      -0.1314
     10  N         15.7420   69.0490   32.6250 N.3    22  LEU22      -0.1231
     11  CA        16.5070   68.8540   31.4090 C.3    22  LEU22       0.1693
     12  C         15.6510   68.0870   30.4230 C.2    22  LEU22       0.2592
     13  O         15.7710   68.2800   29.2170 O.2    22  LEU22      -0.2718
     14  CB        17.7870   68.0670   31.6990 C.3    22  LEU22       0.0284
     15  CG        18.8660   68.8400   32.4560 C.3    22  LEU22       0.0019
     16  CD1       19.9160   67.8730   33.0030 C.3    22  LEU22       0.0001
     17  CD2       19.4770   69.9000   31.5610 C.3    22  LEU22       0.0001
     18  N         14.8000   67.2130   30.9580 N.am   23  GLY23      -0.1957
     19  CA        13.8980   66.4180   30.1730 C.3    23  GLY23       0.1869
     20  C         12.9030   65.6990   31.0660 C.2    23  GLY23       0.2309
     21  O         13.1690   65.4180   32.2390 O.2    23  GLY23      -0.2863
     22  N         14.4550   64.2880   34.5050 N.3    30  VAL30      -0.1245
     23  CA        15.8450   64.5530   34.8240 C.3    30  VAL30       0.1561
     24  C         15.9470   66.0490   35.0000 C.2    30  VAL30       0.2260
     25  O         15.6370   66.7850   34.0790 O.2    30  VAL30      -0.2867
     26  CB        16.8120   64.0640   33.7130 C.3    30  VAL30       0.0252
     27  CG1       18.2560   64.4810   34.0340 C.3    30  VAL30       0.0019
     28  CG2       16.7310   62.5130   33.5400 C.3    30  VAL30       0.0019
     29  N         18.1370   69.5660   36.1120 N.3    32  GLU32      -0.1245
     30  CA        19.4260   70.1940   36.2930 C.3    32  GLU32       0.1567
     31  C         19.5170   70.6520   37.7520 C.2    32  GLU32       0.2260
     32  O         18.5380   71.1000   38.3240 O.2    32  GLU32      -0.2867
     33  CB        19.5790   71.3680   35.3410 C.3    32  GLU32       0.0388
     34  CG        21.0090   71.7640   35.0860 C.3    32  GLU32       0.1160
     35  CD        21.1010   72.9830   34.1980 C.2    32  GLU32       0.3649
     36  OE1       20.0430   73.4730   33.7520 O.co2  32  GLU32      -0.2457
     37  OE2       22.2190   73.4580   33.9530 O.co2  32  GLU32      -0.2457
     38  N         23.0300   66.0730   37.2090 N.3    47  ALA47      -0.1245
     39  CA        21.6820   65.8050   36.7480 C.3    47  ALA47       0.1562
     40  C         21.0150   64.8380   37.7540 C.2    47  ALA47       0.2260
     41  O         21.6780   63.9860   38.3010 O.2    47  ALA47      -0.2867
     42  CB        21.6960   65.2550   35.3160 C.3    47  ALA47       0.0290
     43  N         17.9200   62.1860   38.4360 N.3    49  LYS49      -0.1245
     44  CA        16.7810   61.4200   38.0110 C.3    49  LYS49       0.1561
     45  C         15.8260   61.3560   39.1990 C.2    49  LYS49       0.2260
     46  O         16.2250   61.0720   40.3140 O.2    49  LYS49      -0.2867
     47  CB        17.2230   60.0460   37.5410 C.3    49  LYS49       0.0271
     48  CG        16.2320   59.3570   36.6140 C.3    49  LYS49       0.0035
     49  CD        16.8740   58.1390   35.9230 C.3    49  LYS49       0.0206
     50  CE        16.3970   57.9440   34.4760 C.3    49  LYS49       0.1093
     51  NZ        17.5400   57.5040   33.5820 N.3    49  LYS49      -0.1314
     52  N         17.1160   50.9680   38.9410 N.3    66  GLU66      -0.1245
     53  CA        18.1280   51.6250   38.1230 C.3    66  GLU66       0.1567
     54  C         19.3120   52.1090   38.9920 C.2    66  GLU66       0.2260
     55  O         20.4680   51.9220   38.6320 O.2    66  GLU66      -0.2867
     56  CB        17.4630   52.7690   37.3610 C.3    66  GLU66       0.0388
     57  CG        18.3470   53.5670   36.4230 C.3    66  GLU66       0.1160
     58  CD        17.6140   54.7580   35.8230 C.2    66  GLU66       0.3649
     59  OE1       16.3750   54.8330   35.9440 O.co2  66  GLU66      -0.2457
     60  OE2       18.2870   55.6200   35.2240 O.co2  66  GLU66      -0.2457
     61  N         23.0250   50.8650   38.5660 N.3    70  LEU70      -0.1245
     62  CA        24.1390   51.8070   38.4260 C.3    70  LEU70       0.1561
     63  C         25.2550   51.5210   39.4470 C.2    70  LEU70       0.2260
     64  O         26.4260   51.5390   39.1150 O.2    70  LEU70      -0.2867
     65  CB        23.6600   53.2540   38.5660 C.3    70  LEU70       0.0270
     66  CG        22.7580   53.8140   37.4650 C.3    70  LEU70       0.0019
     67  CD1       22.2420   55.1920   37.8710 C.3    70  LEU70       0.0001
     68  CD2       23.4620   53.8980   36.1150 C.3    70  LEU70       0.0001
     69  N         27.5710   57.2300   31.8210 N.3    80  VAL80      -0.1245
     70  CA        27.0520   58.2890   32.7010 C.3    80  VAL80       0.1561
     71  C         27.0040   57.7040   34.1150 C.2    80  VAL80       0.2260
     72  O         26.2440   56.7820   34.4030 O.2    80  VAL80      -0.2867
     73  CB        25.6070   58.7980   32.3100 C.3    80  VAL80       0.0252
     74  CG1       25.2120   59.9160   33.1870 C.3    80  VAL80       0.0019
     75  CG2       25.5230   59.2350   30.8620 C.3    80  VAL80       0.0019
     76  N         23.3560   61.9100   39.0370 N.3    97  VAL97      -0.1231
     77  CA        24.2680   61.3700   38.0290 C.3    97  VAL97       0.1692
     78  C         24.9840   62.5120   37.3570 C.2    97  VAL97       0.2592
     79  O         24.6180   63.6800   37.5540 O.2    97  VAL97      -0.2718
     80  CB        23.5300   60.4620   36.9930 C.3    97  VAL97       0.0266
     81  CG1       22.9030   59.2880   37.6920 C.3    97  VAL97       0.0020
     82  CG2       22.4720   61.2510   36.1800 C.3    97  VAL97       0.0020
     83  N         26.0170   62.1800   36.5810 N.am   98  GLU98      -0.1966
     84  CA        26.7810   63.1930   35.8360 C.3    98  GLU98       0.1733
     85  C         25.9460   64.0680   34.8610 C.2    98  GLU98       0.2616
     86  O         25.1010   63.5700   34.1180 O.2    98  GLU98      -0.2715
     87  CB        27.9210   62.5250   35.0830 C.3    98  GLU98       0.0429
     88  CG        29.0500   62.1030   35.9990 C.3    98  GLU98       0.1163
     89  CD        30.1100   61.2080   35.3480 C.2    98  GLU98       0.3649
     90  OE1       29.7600   60.3670   34.4720 O.co2  98  GLU98      -0.2457
     91  OE2       31.3000   61.3390   35.7440 O.co2  98  GLU98      -0.2457
     92  N         26.1930   65.3730   34.9040 N.am   99  PHE99      -0.1960
     93  CA        25.6750   66.3310   33.9430 C.3    99  PHE99       0.1771
     94  C         26.6090   66.4400   32.7380 C.2    99  PHE99       0.2620
     95  O         27.8140   66.6570   32.8870 O.2    99  PHE99      -0.2715
     96  CB        25.5270   67.7050   34.5970 C.3    99  PHE99       0.0574
     97  CG        25.0070   68.7840   33.6700 C.ar   99  PHE99      -0.0200
     98  CD1       23.7060   68.7410   33.1960 C.ar   99  PHE99      -0.0042
     99  CD2       25.8010   69.8530   33.3190 C.ar   99  PHE99      -0.0042
    100  CE1       23.2240   69.7190   32.3700 C.ar   99  PHE99      -0.0003
    101  CE2       25.3230   70.8180   32.4770 C.ar   99  PHE99      -0.0003
    102  CZ        24.0330   70.7540   32.0150 C.ar   99  PHE99      -0.0000
    103  N         26.0270   66.2570   31.5560 N.am  100  CYS100     -0.1954
    104  CA        26.7190   66.3050   30.2820 C.3   100  CYS100      0.1843
    105  C         26.1440   67.4440   29.5010 C.2   100  CYS100      0.2625
    106  O         25.1420   67.2790   28.8270 O.2   100  CYS100     -0.2714
    107  CB        26.4950   65.0220   29.5170 C.3   100  CYS100      0.0997
    108  SG        27.0650   63.6360   30.4420 S.3   100  CYS100     -0.0797
    109  N         26.8140   68.5840   29.6210 N.am  101  LYS101     -0.1963
    110  CA        26.3070   69.8930   29.2370 C.3   101  LYS101      0.1728
    111  C         25.9720   70.0780   27.7560 C.2   101  LYS101      0.2616
    112  O         25.1830   70.9620   27.4120 O.2   101  LYS101     -0.2715
    113  CB        27.3510   70.9540   29.6130 C.3   101  LYS101      0.0311
    114  CG        28.6600   70.8930   28.7980 C.3   101  LYS101      0.0038
    115  CD        29.5670   72.0930   29.0180 C.3   101  LYS101      0.0206
    116  CE        28.8850   73.4120   28.7080 C.3   101  LYS101      0.1093
    117  NZ        29.9020   74.5150   28.5920 N.3   101  LYS101     -0.1314
    118  N         26.5950   69.2910   26.8800 N.am  102  PHE102     -0.1960
    119  CA        26.3560   69.4850   25.4600 C.3   102  PHE102      0.1771
    120  C         25.1670   68.7040   24.9380 C.2   102  PHE102      0.2620
    121  O         24.7060   68.9670   23.8220 O.2   102  PHE102     -0.2715
    122  CB        27.6300   69.2590   24.6420 C.3   102  PHE102      0.0574
    123  CG        28.6030   70.3850   24.7500 C.ar  102  PHE102     -0.0200
    124  CD1       28.2860   71.6270   24.2410 C.ar  102  PHE102     -0.0042
    125  CD2       29.8070   70.2180   25.3820 C.ar  102  PHE102     -0.0042
    126  CE1       29.1730   72.6780   24.3500 C.ar  102  PHE102     -0.0003
    127  CE2       30.6900   71.2510   25.5050 C.ar  102  PHE102     -0.0003
    128  CZ        30.3750   72.4970   24.9790 C.ar  102  PHE102     -0.0000
    129  N         24.6620   67.7660   25.7420 N.am  103  GLY103     -0.1940
    130  CA        23.4320   67.0460   25.4320 C.3   103  GLY103      0.2014
    131  C         23.7310   65.7980   24.6260 C.2   103  GLY103      0.2638
    132  O         24.8790   65.3910   24.5590 O.2   103  GLY103     -0.2714
    133  N         22.7170   65.2170   23.9920 N.am  104  ASN104     -0.1972
    134  CA        22.9140   63.9920   23.2130 C.3   104  ASN104      0.1688
    135  C         23.7360   64.2520   21.9620 C.2   104  ASN104      0.2292
    136  O         23.7910   65.3800   21.4440 O.2   104  ASN104     -0.2864
    137  CB        21.5980   63.2800   22.8930 C.3   104  ASN104      0.1181
    138  CG        20.8350   63.9050   21.7310 C.2   104  ASN104      0.2629
    139  OD1       21.1880   63.7390   20.5540 O.2   104  ASN104     -0.2716
    140  ND2       19.7480   64.5940   22.0560 N.am  104  ASN104     -0.0877
    141  N         25.7970   60.9990   25.3960 N.3   156  LEU156     -0.1245
    142  CA        25.8350   62.3930   25.8650 C.3   156  LEU156      0.1561
    143  C         27.2420   62.9520   25.7590 C.2   156  LEU156      0.2260
    144  O         28.2150   62.2130   25.8870 O.2   156  LEU156     -0.2867
    145  CB        25.3570   62.4720   27.3210 C.3   156  LEU156      0.0270
    146  CG        23.8650   62.4730   27.6810 C.3   156  LEU156      0.0019
    147  CD1       22.9460   61.7790   26.7000 C.3   156  LEU156      0.0001
    148  CD2       23.6900   61.8730   29.0610 C.3   156  LEU156      0.0001
    149  N         24.5600   56.3060   27.9450 N.3   166  CYS166     -0.1221
    150  CA        23.4200   56.4680   28.8180 C.3   166  CYS166      0.1808
    151  C         22.4900   55.3070   28.5240 C.2   166  CYS166      0.2601
    152  O         22.3140   54.9530   27.3590 O.2   166  CYS166     -0.2717
    153  CB        22.7370   57.8020   28.4460 C.3   166  CYS166      0.0970
    154  SG        21.4630   58.3810   29.5520 S.3   166  CYS166     -0.0800
    155  N         21.9000   54.6930   29.5450 N.am  167  ASP167     -0.1959
    156  CA        20.7090   53.8630   29.2920 C.3   167  ASP167      0.1840
    157  C         19.4720   54.5320   29.8850 C.2   167  ASP167      0.2622
    158  O         19.3630   54.6890   31.1140 O.2   167  ASP167     -0.2715
    159  CB        20.8330   52.4270   29.8080 C.3   167  ASP167      0.1450
    160  CG        19.6360   51.5500   29.3840 C.2   167  ASP167      0.3671
    161  OD1       19.5990   51.0620   28.2190 O.co2 167  ASP167     -0.2456
    162  OD2       18.7120   51.3630   30.2110 O.co2 167  ASP167     -0.2456
    163  N         18.5640   54.9460   28.9950 N.am  168  PHE168     -0.1974
    164  CA        17.2760   55.4880   29.3910 C.3   168  PHE168      0.1639
    165  C         16.4120   54.3160   29.8830 C.2   168  PHE168      0.2290
    166  O         15.9290   53.5010   29.0830 O.2   168  PHE168     -0.2864
    167  CB        16.5950   56.2040   28.2120 C.3   168  PHE168      0.0560
    168  CG        15.3960   57.0480   28.6130 C.ar  168  PHE168     -0.0200
    169  CD1       14.3730   56.5240   29.3950 C.ar  168  PHE168     -0.0042
    170  CD2       15.2980   58.3770   28.1960 C.ar  168  PHE168     -0.0042
    171  CE1       13.2770   57.3050   29.7540 C.ar  168  PHE168     -0.0003
    172  CE2       14.1990   59.1720   28.5530 C.ar  168  PHE168     -0.0003
    173  CZ        13.1940   58.6390   29.3320 C.ar  168  PHE168     -0.0000
@<TRIPOS>BOND
     1   139   138    2
     2   136   135    2
     3   138   140   am
     4   138   137    1
     5   135   134    1
     6   137   134    1
     7   134   133    1
     8   121   120    2
     9   133   131   am
    10   124   126   ar
    11   124   123   ar
    12   126   128   ar
    13   132   131    2
    14   131   130    1
    15   122   123    1
    16   122   119    1
    17   123   125   ar
    18   120   119    1
    19   120   129   am
    20   128   127   ar
    21   125   127   ar
    22   141   142    1
    23   130   129    1
    24   119   118    1
    25   143   142    1
    26   143   144    2
    27   142   145    1
    28   147   146    1
    29   118   111   am
    30   145   146    1
    31   152   151    2
    32   112   111    2
    33   146   148    1
    34   111   110    1
    35   149   150    1
    36   170   172   ar
    37   170   168   ar
    38   167   168    1
    39   167   164    1
    40   161   160   ar
    41   153   150    1
    42   153   154    1
    43   151   150    1
    44   151   155   am
    45   172   173   ar
    46   117   116    1
    47   168   169   ar
    48   116   115    1
    49   114   115    1
    50   114   113    1
    51   106   105    2
    52   163   164    1
    53   163   157   am
    54   166   165    2
    55    13    12    2
    56   110   113    1
    57   110   109    1
    58   156   155    1
    59   156   159    1
    60   156   157    1
    61   173   171   ar
    62   160   159    1
    63   160   162   ar
    64   164   165    1
    65   169   171   ar
    66   105   109   am
    67   105   104    1
    68   107   104    1
    69   107   108    1
    70   157   158    2
    71    19    18    1
    72    19    20    1
    73   104   103    1
    74    12    18   am
    75    12    11    1
    76    75    73    1
    77    20    21    2
    78     9     8    1
    79    11    14    1
    80    11    10    1
    81   103    94   am
    82    17    15    1
    83    14    15    1
    84    69    70    1
    85   102   100   ar
    86   102   101   ar
    87    73    70    1
    88    73    74    1
    89   100    98   ar
    90    15    16    1
    91   101    99   ar
    92     8     7    1
    93    70    71    1
    94    94    95    2
    95    94    93    1
    96    98    97   ar
    97    99    97   ar
    98    28    26    1
    99    51    50    1
   100     7     6    1
   101    97    96    1
   102    26    27    1
   103    26    23    1
   104    36    35   ar
   105    93    96    1
   106    93    92    1
   107    37    35   ar
   108    25    24    2
   109    71    72    2
   110    86    85    2
   111    35    34    1
   112    90    89   ar
   113    50    49    1
   114     5     6    1
   115     5     2    1
   116    22    23    1
   117    23    24    1
   118    85    92   am
   119    85    84    1
   120     4     3    2
   121    87    84    1
   122    87    88    1
   123    34    33    1
   124     3     2    1
   125    60    58   ar
   126    42    39    1
   127    33    30    1
   128    89    91   ar
   129    89    88    1
   130     2     1    1
   131    58    59   ar
   132    58    57    1
   133    84    83    1
   134    49    48    1
   135    29    30    1
   136    68    66    1
   137    82    80    1
   138    30    31    1
   139    57    56    1
   140    83    78   am
   141    48    47    1
   142    39    38    1
   143    39    40    1
   144    80    81    1
   145    80    77    1
   146    78    79    2
   147    78    77    1
   148    56    53    1
   149    66    67    1
   150    66    65    1
   151    47    44    1
   152    31    32    2
   153    40    41    2
   154    44    43    1
   155    44    45    1
   156    77    76    1
   157    53    52    1
   158    53    54    1
   159    62    65    1
   160    62    61    1
   161    62    63    1
   162    55    54    2
   163    64    63    2
   164    45    46    2
