@<TRIPOS>MOLECULE
tmp/3c84E00.pdb
 86 82 0 0 0
SMALL
GASTEIGER

@<TRIPOS>ATOM
      1  N         -5.0390   25.3000   69.1690 N.3    34  THR34      -0.1218
      2  CA        -6.1950   25.1700   70.0710 C.3    34  THR34       0.1862
      3  C         -5.7760   24.2040   71.1460 C.2    34  THR34       0.2287
      4  O         -5.6230   23.0040   70.8690 O.2    34  THR34      -0.2866
      5  CB        -7.4780   24.6720   69.3320 C.3    34  THR34       0.1770
      6  OG1       -7.8330   25.5880   68.2680 O.3    34  THR34      -0.2211
      7  CG2       -8.7000   24.5680   70.2900 C.3    34  THR34       0.0375
      8  N         -4.9280   20.7600   69.0880 N.3    53  TYR53      -0.1241
      9  CA        -4.8740   20.6300   67.6380 C.3    53  TYR53       0.1605
     10  C         -4.3730   21.8910   66.9750 C.2    53  TYR53       0.2264
     11  O         -4.4850   22.9930   67.5360 O.2    53  TYR53      -0.2867
     12  CB        -6.1930   20.1330   67.0130 C.3    53  TYR53       0.0534
     13  CG        -7.4760   20.8100   67.4170 C.ar   53  TYR53      -0.0201
     14  CD1       -7.9550   21.9640   66.7230 C.ar   53  TYR53      -0.0009
     15  CD2       -8.2820   20.2570   68.4250 C.ar   53  TYR53      -0.0009
     16  CE1       -9.2120   22.5620   67.0740 C.ar   53  TYR53       0.0417
     17  CE2       -9.5220   20.8720   68.8000 C.ar   53  TYR53       0.0417
     18  CZ        -9.9710   21.9930   68.1020 C.ar   53  TYR53       0.1957
     19  OH       -11.1920   22.5520   68.4460 O.3    53  TYR53      -0.2866
     20  N         -4.3260   24.2120   63.5190 N.3    55  GLN55      -0.1245
     21  CA        -4.8720   24.4580   62.1900 C.3    55  GLN55       0.1566
     22  C         -3.7700   24.9230   61.2540 C.2    55  GLN55       0.2260
     23  O         -3.0790   25.8960   61.5450 O.2    55  GLN55      -0.2867
     24  CB        -6.0090   25.4940   62.2170 C.3    55  GLN55       0.0367
     25  CG        -6.6140   25.7330   60.8130 C.3    55  GLN55       0.0905
     26  CD        -7.8760   26.6220   60.8080 C.2    55  GLN55       0.2608
     27  OE1       -8.3980   26.9320   59.7370 O.2    55  GLN55      -0.2717
     28  NE2       -8.3440   27.0440   61.9880 N.am   55  GLN55      -0.0878
     29  N        -12.4610   16.1450   50.5180 N.3    77  ARG77      -0.1245
     30  CA       -11.6270   15.5890   51.5740 C.3    77  ARG77       0.1563
     31  C        -10.6640   14.6350   50.9360 C.2    77  ARG77       0.2260
     32  O        -11.0120   13.9220   49.9850 O.2    77  ARG77      -0.2867
     33  CB       -12.4610   14.8670   52.6170 C.3    77  ARG77       0.0307
     34  CG       -13.0090   15.7510   53.7020 C.3    77  ARG77       0.0489
     35  CD       -14.1750   16.6360   53.2730 C.3    77  ARG77       0.2205
     36  NE       -14.6060   17.4300   54.4070 N.pl3  77  ARG77      -0.0865
     37  CZ       -15.2330   18.5940   54.3210 C.cat  77  ARG77       0.5346
     38  NH1      -15.5530   19.2350   55.4310 N.pl3  77  ARG77       0.1354
     39  NH2      -15.5410   19.1220   53.1250 N.pl3  77  ARG77       0.1354
     40  N         -6.3910   13.4100   57.2910 N.3   104  ILE104     -0.1231
     41  CA        -7.2200   13.8180   56.1500 C.3   104  ILE104      0.1692
     42  C         -7.3090   15.3540   56.1640 C.2   104  ILE104      0.2592
     43  O         -7.4960   15.9720   57.2270 O.2   104  ILE104     -0.2718
     44  CB        -8.6480   13.1790   56.2360 C.3   104  ILE104      0.0266
     45  CG1       -8.5660   11.6350   56.2760 C.3   104  ILE104      0.0019
     46  CG2       -9.5600   13.6790   55.0610 C.3   104  ILE104      0.0020
     47  CD1       -9.9070   10.9300   56.6690 C.3   104  ILE104      0.0001
     48  N         -7.1710   15.9510   54.9870 N.am  105  ALA105     -0.1966
     49  CA        -7.2180   17.4020   54.8050 C.3   105  ALA105      0.1728
     50  C         -8.3950   17.7650   53.8750 C.2   105  ALA105      0.2616
     51  O         -9.0190   16.8860   53.2600 O.2   105  ALA105     -0.2715
     52  CB        -5.8990   17.9120   54.1940 C.3   105  ALA105      0.0334
     53  N         -8.6910   19.0580   53.7910 N.am  106  VAL106     -0.1977
     54  CA        -9.7620   19.5370   52.8990 C.3   106  VAL106      0.1596
     55  C         -9.1040   20.4410   51.8830 C.2   106  VAL106      0.2287
     56  O         -8.3810   21.3670   52.2430 O.2   106  VAL106     -0.2864
     57  CB       -10.8630   20.3120   53.6520 C.3   106  VAL106      0.0276
     58  CG1      -11.8860   20.9540   52.6310 C.3   106  VAL106      0.0022
     59  CG2      -11.5820   19.4140   54.6130 C.3   106  VAL106      0.0022
     60  N         -6.7390   22.9070   53.9710 N.3   114  MET114     -0.1230
     61  CA        -6.8430   23.0380   55.4200 C.3   114  MET114      0.1702
     62  C         -6.5900   21.6760   56.0400 C.2   114  MET114      0.2592
     63  O         -7.0980   20.6750   55.5400 O.2   114  MET114     -0.2718
     64  CB        -8.2220   23.5710   55.8130 C.3   114  MET114      0.0401
     65  CG        -8.3960   23.8060   57.3200 C.3   114  MET114      0.0596
     66  SD       -10.0500   24.4500   57.7220 S.3   114  MET114     -0.1393
     67  CE       -11.1580   23.6270   56.6020 C.3   114  MET114      0.0692
     68  N         -5.7990   21.6450   57.1200 N.am  115  PHE115     -0.1962
     69  CA        -5.4020   20.3890   57.7480 C.3   115  PHE115      0.1771
     70  C         -5.2940   20.7210   59.2360 C.2   115  PHE115      0.2619
     71  O         -4.6690   21.7170   59.6330 O.2   115  PHE115     -0.2715
     72  CB        -4.0710   19.8750   57.1760 C.3   115  PHE115      0.0574
     73  CG        -3.5930   18.5580   57.7740 C.ar  115  PHE115     -0.0200
     74  CD1       -4.4670   17.4910   57.9260 C.ar  115  PHE115     -0.0042
     75  CD2       -2.2520   18.3900   58.1440 C.ar  115  PHE115     -0.0042
     76  CE1       -4.0300   16.2600   58.4520 C.ar  115  PHE115     -0.0003
     77  CE2       -1.7850   17.1670   58.6750 C.ar  115  PHE115     -0.0003
     78  CZ        -2.6960   16.0970   58.8400 C.ar  115  PHE115     -0.0000
     79  N         -5.9810   19.9130   60.0370 N.am  116  ILE116     -0.1977
     80  CA        -6.1440   20.1730   61.4760 C.3   116  ILE116      0.1596
     81  C         -5.7830   18.9670   62.3530 C.2   116  ILE116      0.2287
     82  O         -6.6430   18.3430   62.9830 O.2   116  ILE116     -0.2864
     83  CB        -7.5560   20.7450   61.7820 C.3   116  ILE116      0.0276
     84  CG1       -7.9520   21.8500   60.7380 C.3   116  ILE116      0.0022
     85  CG2       -7.5740   21.3330   63.1980 C.3   116  ILE116      0.0022
     86  CD1       -9.2960   22.5940   61.0390 C.3   116  ILE116      0.0001
@<TRIPOS>BOND
     1    32    31    2
     2    29    30    1
     3    31    30    1
     4    30    33    1
     5    55    56    2
     6    55    54    1
     7    33    34    1
     8    58    57    1
     9    54    57    1
    10    54    53    1
    11    39    37    1
    12    51    50    2
    13    35    34    1
    14    35    36    1
    15    57    59    1
    16    53    50   am
    17    50    49    1
    18    60    61    1
    19    52    49    1
    20    37    36    2
    21    37    38    1
    22    49    48    1
    23    48    42   am
    24    46    44    1
    25    61    64    1
    26    61    62    1
    27    63    62    2
    28    64    65    1
    29    62    68   am
    30    41    42    1
    31    41    44    1
    32    41    40    1
    33    42    43    2
    34    44    45    1
    35    45    47    1
    36    67    66    1
    37    68    69    1
    38    72    69    1
    39    72    73    1
    40    65    66    1
    41    69    70    1
    42    73    74   ar
    43    73    75   ar
    44    74    76   ar
    45    75    77   ar
    46    76    78   ar
    47    77    78   ar
    48    70    71    2
    49    70    79   am
    50    27    26    2
    51    79    80    1
    52    84    86    1
    53    84    83    1
    54    26    25    1
    55    26    28   am
    56    25    24    1
    57    22    23    2
    58    22    21    1
    59    80    83    1
    60    80    81    1
    61    83    85    1
    62    21    24    1
    63    21    20    1
    64    81    82    2
    65    14    16   ar
    66    14    13   ar
    67    10    11    2
    68    10     9    1
    69    12    13    1
    70    12     9    1
    71    16    18   ar
    72    13    15   ar
    73     9     8    1
    74    18    19    1
    75    18    17   ar
    76     6     5    1
    77    15    17   ar
    78     1     2    1
    79     5     2    1
    80     5     7    1
    81     2     3    1
    82     4     3    2
