@<TRIPOS>MOLECULE
tmp/3c85C00.pdb
 120 115 0 0 0
SMALL
GASTEIGER

@<TRIPOS>ATOM
      1  N         32.8390   30.7530   30.3650 N.3    12  LEU12      -0.1231
      2  CA        34.0590   30.3440   31.0760 C.3    12  LEU12       0.1693
      3  C         35.1310   31.4180   30.9360 C.2    12  LEU12       0.2592
      4  O         35.6700   31.6000   29.8370 O.2    12  LEU12      -0.2718
      5  CB        34.5320   28.9680   30.5740 C.3    12  LEU12       0.0284
      6  CG        33.5230   27.8260   30.5700 C.3    12  LEU12       0.0019
      7  CD1       34.0700   26.5050   29.9660 C.3    12  LEU12       0.0001
      8  CD2       32.9520   27.5530   32.0300 C.3    12  LEU12       0.0001
      9  N         35.4090   32.1120   32.0590 N.am   13  GLY13      -0.1957
     10  CA        36.2620   33.3080   32.1370 C.3    13  GLY13       0.1869
     11  C         35.3450   34.5120   32.2120 C.2    13  GLY13       0.2309
     12  O         34.4790   34.6910   31.3440 O.2    13  GLY13      -0.2863
     13  N         36.6690   37.7500   32.7990 N.3    14  GLY14      -0.1225
     14  CA        37.4040   39.0060   32.5920 C.3    14  GLY14       0.1811
     15  C         36.5680   39.9350   31.7360 C.2    14  GLY14       0.2280
     16  O         35.3310   39.7670   31.6090 O.2    14  GLY14      -0.2866
     17  N         36.2270   40.2850   28.5830 N.3    16  ILE16      -0.1245
     18  CA        35.5830   39.5750   27.4990 C.3    16  ILE16       0.1561
     19  C         34.3380   38.8490   27.9210 C.2    16  ILE16       0.2260
     20  O         33.2690   39.1160   27.3420 O.2    16  ILE16      -0.2867
     21  CB        36.5280   38.6200   26.7550 C.3    16  ILE16       0.0252
     22  CG1       37.7470   39.3950   26.2390 C.3    16  ILE16       0.0019
     23  CG2       35.7650   37.8840   25.6160 C.3    16  ILE16       0.0019
     24  CD1       38.8170   38.4880   25.5790 C.3    16  ILE16       0.0001
     25  N         31.8180   31.6890   35.0520 N.3    35  ILE35      -0.1231
     26  CA        32.7780   30.9750   35.9010 C.3    35  ILE35       0.1692
     27  C         34.0950   31.7170   35.8960 C.2    35  ILE35       0.2592
     28  O         34.6000   32.0520   34.8280 O.2    35  ILE35      -0.2718
     29  CB        33.0010   29.4930   35.4300 C.3    35  ILE35       0.0266
     30  CG1       31.6660   28.7400   35.2970 C.3    35  ILE35       0.0019
     31  CG2       33.9950   28.7510   36.3830 C.3    35  ILE35       0.0020
     32  CD1       30.8200   28.6220   36.5890 C.3    35  ILE35       0.0001
     33  N         34.6270   31.9900   37.0920 N.am   36  GLU36      -0.1966
     34  CA        35.7800   32.8420   37.2610 C.3    36  GLU36       0.1733
     35  C         36.6660   32.2390   38.3260 C.2    36  GLU36       0.2616
     36  O         36.2180   32.0200   39.4460 O.2    36  GLU36      -0.2715
     37  CB        35.3270   34.2700   37.6470 C.3    36  GLU36       0.0429
     38  CG        36.4790   35.2480   37.9840 C.3    36  GLU36       0.1163
     39  CD        37.5560   35.2750   36.9420 C.2    36  GLU36       0.3649
     40  OE1       37.2200   35.4890   35.7410 O.co2  36  GLU36      -0.2457
     41  OE2       38.7480   35.1060   37.3200 O.co2  36  GLU36      -0.2457
     42  N         37.9190   31.9550   37.9790 N.am   37  ILE37      -0.1963
     43  CA        38.8600   31.3240   38.9110 C.3    37  ILE37       0.1727
     44  C         39.2710   32.2440   40.0780 C.2    37  ILE37       0.2616
     45  O         39.4580   31.7680   41.1870 O.2    37  ILE37      -0.2715
     46  CB        40.1050   30.7570   38.1720 C.3    37  ILE37       0.0290
     47  CG1       40.8510   29.7150   39.0330 C.3    37  ILE37       0.0022
     48  CG2       41.0120   31.8690   37.6340 C.3    37  ILE37       0.0023
     49  CD1       41.7390   28.8050   38.2040 C.3    37  ILE37       0.0001
     50  N         39.3720   33.5490   39.8130 N.am   38  ARG38      -0.1977
     51  CA        39.8060   34.5520   40.8020 C.3    38  ARG38       0.1597
     52  C         38.6410   34.8340   41.7430 C.2    38  ARG38       0.2287
     53  O         37.6490   35.4180   41.3340 O.2    38  ARG38      -0.2864
     54  CB        40.2470   35.8420   40.0880 C.3    38  ARG38       0.0334
     55  CG        41.6220   35.7340   39.3680 C.3    38  ARG38       0.0492
     56  CD        42.0770   37.0470   38.7070 C.3    38  ARG38       0.2205
     57  NE        41.2780   37.3960   37.5370 N.pl3  38  ARG38      -0.0865
     58  CZ        40.6610   38.5640   37.3720 C.cat  38  ARG38       0.5346
     59  NH1       40.7800   39.5090   38.3010 N.pl3  38  ARG38       0.1354
     60  NH2       39.9420   38.8030   36.2730 N.pl3  38  ARG38       0.1354
     61  N         35.5670   29.0820   40.4450 N.3    55  GLY55      -0.1210
     62  CA        35.8810   27.6980   40.1940 C.3    55  GLY55       0.1956
     63  C         36.8310   27.6360   39.0260 C.2    55  GLY55       0.2612
     64  O         37.0680   28.6330   38.3640 O.2    55  GLY55      -0.2717
     65  N         37.3760   26.4560   38.7970 N.am   56  ASP56      -0.1959
     66  CA        38.4030   26.2450   37.8380 C.3    56  ASP56       0.1840
     67  C         37.8680   25.3810   36.6820 C.2    56  ASP56       0.2622
     68  O         37.6470   24.1670   36.8390 O.2    56  ASP56      -0.2715
     69  CB        39.5700   25.5320   38.5500 C.3    56  ASP56       0.1450
     70  CG        40.7410   25.2360   37.6320 C.2    56  ASP56       0.3671
     71  OD1       40.6700   25.4820   36.4090 O.co2  56  ASP56      -0.2456
     72  OD2       41.7520   24.7300   38.1500 O.co2  56  ASP56      -0.2456
     73  N         37.6870   26.0150   35.5220 N.am   57  ALA57      -0.1963
     74  CA        37.1180   25.3690   34.3380 C.3    57  ALA57       0.1728
     75  C         38.0770   24.3420   33.7170 C.2    57  ALA57       0.2616
     76  O         37.7210   23.6580   32.7550 O.2    57  ALA57      -0.2715
     77  CB        36.7530   26.4330   33.3210 C.3    57  ALA57       0.0334
     78  N         39.2860   24.2100   34.2450 N.am   58  THR58      -0.1951
     79  CA        40.1520   23.1340   33.7530 C.3    58  THR58       0.1897
     80  C         40.1490   21.8950   34.6400 C.2    58  THR58       0.2313
     81  O         40.8360   20.9280   34.3360 O.2    58  THR58      -0.2863
     82  CB        41.5990   23.6050   33.5220 C.3    58  THR58       0.1794
     83  OG1       42.2520   23.8030   34.7870 O.3    58  THR58      -0.2208
     84  CG2       41.5830   24.8870   32.6970 C.3    58  THR58       0.0378
     85  N         36.0480   31.9970   27.0410 N.3    78  ALA78      -0.1245
     86  CA        36.5200   33.3730   27.0510 C.3    78  ALA78       0.1562
     87  C         37.7700   33.4260   27.9170 C.2    78  ALA78       0.2260
     88  O         37.9280   34.3240   28.7830 O.2    78  ALA78      -0.2867
     89  CB        35.4320   34.3410   27.5890 C.3    78  ALA78       0.0290
     90  N         41.3450   33.4750   26.5650 N.3    79  PRO79      -0.2102
     91  CA        42.2610   33.4430   25.4140 C.3    79  PRO79       0.1504
     92  C         43.7400   33.4220   25.7800 C.2    79  PRO79       0.2576
     93  O         44.6010   33.3490   24.8880 O.2    79  PRO79      -0.2718
     94  CB        41.9030   34.7260   24.6140 C.3    79  PRO79       0.0282
     95  CG        41.3390   35.7050   25.6640 C.3    79  PRO79       0.0208
     96  CD        40.7740   34.8270   26.8040 C.3    79  PRO79       0.0893
     97  N         44.0740   33.4380   27.0530 N.am   80  HIS80      -0.1962
     98  CA        45.4660   33.2840   27.4370 C.3    80  HIS80       0.1787
     99  C         45.7720   31.9840   28.1620 C.2    80  HIS80       0.2620
    100  O         44.9000   31.3380   28.6760 O.2    80  HIS80      -0.2715
    101  CB        46.0040   34.4880   28.2050 C.3    80  HIS80       0.0785
    102  CG        45.7610   35.7980   27.5310 C.ar   80  HIS80       0.0821
    103  ND1       44.6070   36.5140   27.7020 N.ar   80  HIS80      -0.2267
    104  CD2       46.5160   36.5190   26.6790 C.ar   80  HIS80       0.1154
    105  CE1       44.6470   37.6040   26.9700 C.ar   80  HIS80       0.1986
    106  NE2       45.8000   37.6370   26.3470 N.ar   80  HIS80      -0.2212
    107  N         47.0320   31.6050   28.1570 N.am   81  HIS81      -0.1973
    108  CA        47.4780   30.4250   28.8400 C.3    81  HIS81       0.1656
    109  C         46.7970   29.1160   28.4900 C.2    81  HIS81       0.2291
    110  O         46.6490   28.2870   29.3360 O.2    81  HIS81      -0.2864
    111  CB        47.4610   30.6250   30.3430 C.3    81  HIS81       0.0771
    112  CG        48.1270   31.8790   30.7810 C.ar   81  HIS81       0.0820
    113  ND1       47.4270   32.9620   31.2410 N.ar   81  HIS81      -0.2267
    114  CD2       49.4260   32.2400   30.7870 C.ar   81  HIS81       0.1154
    115  CE1       48.2630   33.9370   31.5180 C.ar   81  HIS81       0.1986
    116  NE2       49.4860   33.5260   31.2490 N.ar   81  HIS81      -0.2212
    117  N         43.8960   28.4090   28.2250 N.3    83  GLY83      -0.1225
    118  CA        42.6530   28.2130   28.9880 C.3    83  GLY83       0.1811
    119  C         41.5320   27.6560   28.1330 C.2    83  GLY83       0.2280
    120  O         40.8960   26.6790   28.4900 O.2    83  GLY83      -0.2866
@<TRIPOS>BOND
     1    94    91    1
     2    94    95    1
     3    93    92    2
     4    91    92    1
     5    91    90    1
     6    24    22    1
     7    23    21    1
     8    95    96    1
     9    92    97   am
    10    22    21    1
    11   106   104   ar
    12   106   105   ar
    13    90    96    1
    14   104   102   ar
    15    21    18    1
    16   105   103   ar
    17    85    86    1
    18    86    89    1
    19    86    87    1
    20    97    98    1
    21    20    19    2
    22    98    99    1
    23    98   101    1
    24    18    19    1
    25    18    17    1
    26   102   103   ar
    27   102   101    1
    28    87    88    2
    29   119   120    2
    30   119   118    1
    31   107    99   am
    32   107   108    1
    33    99   100    2
    34   117   118    1
    35   109   108    1
    36   109   110    2
    37   108   111    1
    38     4     3    2
    39     7     6    1
    40   111   112    1
    41     1     2    1
    42     6     5    1
    43     6     8    1
    44     5     2    1
    45   112   114   ar
    46   112   113   ar
    47   114   116   ar
    48     3     2    1
    49     3     9   am
    50   113   115   ar
    51   116   115   ar
    52    12    11    2
    53    16    15    2
    54    15    14    1
    55     9    10    1
    56    10    11    1
    57    14    13    1
    58    84    82    1
    59    76    75    2
    60    77    74    1
    61    82    79    1
    62    82    83    1
    63    75    78   am
    64    75    74    1
    65    79    78    1
    66    79    80    1
    67    81    80    2
    68    74    73    1
    69    28    27    2
    70    25    26    1
    71    30    29    1
    72    30    32    1
    73    29    26    1
    74    29    31    1
    75    73    67   am
    76    40    39   ar
    77    27    26    1
    78    27    33   am
    79    60    58    1
    80    71    70   ar
    81    67    68    2
    82    67    66    1
    83    39    41   ar
    84    39    38    1
    85    33    34    1
    86    34    37    1
    87    34    35    1
    88    58    57    2
    89    58    59    1
    90    57    56    1
    91    70    72   ar
    92    70    69    1
    93    48    46    1
    94    37    38    1
    95    66    69    1
    96    66    65    1
    97    42    35   am
    98    42    43    1
    99    46    43    1
   100    46    47    1
   101    49    47    1
   102    35    36    2
   103    64    63    2
   104    56    55    1
   105    65    63   am
   106    43    44    1
   107    63    62    1
   108    55    54    1
   109    50    44   am
   110    50    51    1
   111    44    45    2
   112    54    51    1
   113    62    61    1
   114    51    52    1
   115    53    52    2
