@<TRIPOS>MOLECULE
tmp/3c88A00.pdb
 236 230 0 0 0
SMALL
GASTEIGER

@<TRIPOS>ATOM
      1  N         26.6000   13.0220   54.4590 N.3    69  VAL69      -0.1245
      2  CA        25.7510   13.9930   53.7860 C.3    69  VAL69       0.1561
      3  C         26.3110   14.3330   52.4100 C.2    69  VAL69       0.2260
      4  O         27.1290   15.2440   52.2580 O.2    69  VAL69      -0.2867
      5  CB        25.6220   15.2850   54.6170 C.3    69  VAL69       0.0252
      6  CG1       24.6290   16.2310   53.9610 C.3    69  VAL69       0.0019
      7  CG2       25.1780   14.9440   56.0350 C.3    69  VAL69       0.0019
      8  N         24.5060   18.0410   46.6090 N.3   160  ILE160     -0.1231
      9  CA        24.0690   18.8760   47.7230 C.3   160  ILE160      0.1692
     10  C         25.1510   19.6730   48.4380 C.2   160  ILE160      0.2592
     11  O         24.9210   20.2080   49.5240 O.2   160  ILE160     -0.2718
     12  CB        23.2600   18.0640   48.7460 C.3   160  ILE160      0.0266
     13  CG1       24.0630   16.8650   49.2500 C.3   160  ILE160      0.0019
     14  CG2       21.9550   17.6270   48.1050 C.3   160  ILE160      0.0020
     15  CD1       23.3220   16.0330   50.2860 C.3   160  ILE160      0.0001
     16  N         26.3270   19.7680   47.8270 N.am  161  GLN161     -0.1966
     17  CA        27.3990   20.5540   48.4220 C.3   161  GLN161      0.1733
     18  C         27.3060   21.9620   47.8610 C.2   161  GLN161      0.2616
     19  O         28.0250   22.3210   46.9260 O.2   161  GLN161     -0.2715
     20  CB        28.7730   19.9550   48.1090 C.3   161  GLN161      0.0408
     21  CG        29.2130   18.8880   49.0960 C.3   161  GLN161      0.0908
     22  CD        29.0350   19.3220   50.5410 C.2   161  GLN161      0.2608
     23  OE1       28.7190   18.5110   51.4130 O.2   161  GLN161     -0.2717
     24  NE2       29.2420   20.6110   50.8000 N.am  161  GLN161     -0.0878
     25  N         26.3870   22.7470   48.4170 N.am  162  PHE162     -0.1960
     26  CA        26.2000   24.1270   47.9860 C.3   162  PHE162      0.1771
     27  C         27.2590   24.9680   48.6840 C.2   162  PHE162      0.2619
     28  O         27.5840   24.7310   49.8480 O.2   162  PHE162     -0.2715
     29  CB        24.8110   24.6460   48.3770 C.3   162  PHE162      0.0574
     30  CG        23.6670   23.8180   47.8540 C.ar  162  PHE162     -0.0200
     31  CD1       23.8140   23.0200   46.7260 C.ar  162  PHE162     -0.0042
     32  CD2       22.4180   23.8820   48.4670 C.ar  162  PHE162     -0.0042
     33  CE1       22.7340   22.3030   46.2190 C.ar  162  PHE162     -0.0003
     34  CE2       21.3350   23.1700   47.9670 C.ar  162  PHE162     -0.0003
     35  CZ        21.4900   22.3800   46.8440 C.ar  162  PHE162     -0.0000
     36  N         27.7940   25.9590   47.9830 N.am  163  GLU163     -0.1963
     37  CA        28.8250   26.7950   48.5760 C.3   163  GLU163      0.1733
     38  C         29.1990   27.9300   47.6560 C.2   163  GLU163      0.2616
     39  O         28.8600   27.9230   46.4690 O.2   163  GLU163     -0.2715
     40  CB        30.0820   25.9620   48.8460 C.3   163  GLU163      0.0429
     41  CG        30.5840   25.2300   47.6100 C.3   163  GLU163      0.1163
     42  CD        31.8680   24.4570   47.8510 C.2   163  GLU163      0.3649
     43  OE1       32.3380   24.4130   49.0060 O.co2 163  GLU163     -0.2457
     44  OE2       32.4040   23.8860   46.8800 O.co2 163  GLU163     -0.2457
     45  N         29.9040   28.9020   48.2220 N.am  164  CYS164     -0.1954
     46  CA        30.3890   30.0390   47.4610 C.3   164  CYS164      0.1843
     47  C         31.8270   29.7640   47.0620 C.2   164  CYS164      0.2625
     48  O         32.6430   29.3310   47.8820 O.2   164  CYS164     -0.2714
     49  CB        30.3510   31.3180   48.2910 C.3   164  CYS164      0.0997
     50  SG        28.7400   32.0580   48.4430 S.3   164  CYS164     -0.0797
     51  N         32.1320   30.0030   45.7950 N.am  165  LYS165     -0.1977
     52  CA        33.4800   29.8070   45.2880 C.3   165  LYS165      0.1596
     53  C         33.8680   31.0710   44.5450 C.2   165  LYS165      0.2287
     54  O         33.0240   31.7260   43.9380 O.2   165  LYS165     -0.2864
     55  CB        33.5510   28.6060   44.3320 C.3   165  LYS165      0.0298
     56  CG        33.2670   27.2620   44.9940 C.3   165  LYS165      0.0038
     57  CD        33.7090   26.0720   44.1350 C.3   165  LYS165      0.0206
     58  CE        35.2230   25.8420   44.1750 C.3   165  LYS165      0.1093
     59  NZ        35.9390   26.2470   42.9310 N.3   165  LYS165     -0.1314
     60  N         16.6710   19.8440   51.8430 N.3   193  PHE193     -0.1227
     61  CA        17.0130   19.0170   52.9940 C.3   193  PHE193      0.1736
     62  C         15.8840   18.8240   53.9950 C.2   193  PHE193      0.2596
     63  O         15.0590   19.7110   54.1870 O.2   193  PHE193     -0.2718
     64  CB        18.2090   19.6440   53.7050 C.3   193  PHE193      0.0547
     65  CG        19.3750   19.9280   52.8010 C.ar  193  PHE193     -0.0202
     66  CD1       20.3630   18.9730   52.5970 C.ar  193  PHE193     -0.0042
     67  CD2       19.4790   21.1480   52.1450 C.ar  193  PHE193     -0.0042
     68  CE1       21.4410   19.2300   51.7510 C.ar  193  PHE193     -0.0003
     69  CE2       20.5550   21.4120   51.2960 C.ar  193  PHE193     -0.0003
     70  CZ        21.5340   20.4510   51.1010 C.ar  193  PHE193     -0.0000
     71  N         15.8710   17.6650   54.6480 N.am  194  GLY194     -0.1942
     72  CA        14.8410   17.3870   55.6310 C.3   194  GLY194      0.2014
     73  C         15.3930   17.5470   57.0310 C.2   194  GLY194      0.2638
     74  O         16.4940   17.0720   57.3190 O.2   194  GLY194     -0.2714
     75  N         14.6350   18.2130   57.8960 N.am  195  PHE195     -0.1973
     76  CA        15.0570   18.4280   59.2740 C.3   195  PHE195      0.1639
     77  C         13.9230   18.0650   60.2230 C.2   195  PHE195      0.2290
     78  O         12.8130   17.7530   59.7910 O.2   195  PHE195     -0.2864
     79  CB        15.5030   19.8850   59.4860 C.3   195  PHE195      0.0560
     80  CG        14.3910   20.8970   59.3610 C.ar  195  PHE195     -0.0200
     81  CD1       13.7170   21.3540   60.4860 C.ar  195  PHE195     -0.0042
     82  CD2       14.0060   21.3820   58.1130 C.ar  195  PHE195     -0.0042
     83  CE1       12.6790   22.2780   60.3760 C.ar  195  PHE195     -0.0003
     84  CE2       12.9630   22.3090   57.9960 C.ar  195  PHE195     -0.0003
     85  CZ        12.3010   22.7540   59.1310 C.ar  195  PHE195     -0.0000
     86  N         13.3430   21.9540   54.2330 N.3   214  THR214     -0.1218
     87  CA        13.8890   23.3050   54.2630 C.3   214  THR214      0.1862
     88  C         13.3950   24.0560   53.0260 C.2   214  THR214      0.2287
     89  O         13.3730   23.5090   51.9160 O.2   214  THR214     -0.2866
     90  CB        15.4370   23.2610   54.2540 C.3   214  THR214      0.1770
     91  OG1       15.8990   22.6250   55.4540 O.3   214  THR214     -0.2211
     92  CG2       16.0230   24.6500   54.1700 C.3   214  THR214      0.0375
     93  N         17.9500   28.4480   51.9210 N.3   219  THR219     -0.1218
     94  CA        19.2290   27.8700   51.5280 C.3   219  THR219      0.1862
     95  C         19.9720   28.8060   50.5730 C.2   219  THR219      0.2287
     96  O         21.1760   29.0160   50.7110 O.2   219  THR219     -0.2866
     97  CB        19.0060   26.5140   50.8540 C.3   219  THR219      0.1770
     98  OG1       18.3220   25.6570   51.7750 O.3   219  THR219     -0.2211
     99  CG2       20.3270   25.8730   50.4610 C.3   219  THR219      0.0375
    100  N         21.1150   31.9030   52.4330 N.3   222  HIS222     -0.1226
    101  CA        22.2910   31.5920   53.2440 C.3   222  HIS222      0.1752
    102  C         23.5360   31.8040   52.3850 C.2   222  HIS222      0.2595
    103  O         24.4920   32.4570   52.8080 O.2   222  HIS222     -0.2718
    104  CB        22.2230   30.1390   53.7140 C.3   222  HIS222      0.0759
    105  CG        23.4360   29.6720   54.4550 C.ar  222  HIS222      0.0818
    106  ND1       23.4710   29.5470   55.8270 N.ar  222  HIS222     -0.2268
    107  CD2       24.6510   29.2530   54.0110 C.ar  222  HIS222      0.1154
    108  CE1       24.6450   29.0670   56.1960 C.ar  222  HIS222      0.1986
    109  NE2       25.3780   28.8790   55.1160 N.ar  222  HIS222     -0.2212
    110  N         23.5220   31.2640   51.1700 N.am  223  GLU223     -0.1979
    111  CA        24.6730   31.4260   50.2940 C.3   223  GLU223      0.1602
    112  C         24.8550   32.8810   49.8620 C.2   223  GLU223      0.2287
    113  O         25.9830   33.3440   49.7320 O.2   223  GLU223     -0.2864
    114  CB        24.5570   30.5060   49.0750 C.3   223  GLU223      0.0415
    115  CG        24.6350   29.0190   49.4150 C.3   223  GLU223      0.1163
    116  CD        25.8350   28.6670   50.2800 C.2   223  GLU223      0.3649
    117  OE1       26.9270   29.2300   50.0530 O.co2 223  GLU223     -0.2457
    118  OE2       25.6870   27.8100   51.1830 O.co2 223  GLU223     -0.2457
    119  N         26.7730   34.7300   52.4870 N.3   226  HIS226     -0.1241
    120  CA        28.2020   34.4730   52.4030 C.3   226  HIS226      0.1621
    121  C         28.7390   35.3380   51.2660 C.2   226  HIS226      0.2264
    122  O         29.7810   35.9610   51.4050 O.2   226  HIS226     -0.2867
    123  CB        28.5030   33.0120   52.0530 C.3   226  HIS226      0.0745
    124  CG        28.3620   32.0580   53.1940 C.ar  226  HIS226      0.0817
    125  ND1       29.0370   32.2060   54.3880 N.ar  226  HIS226     -0.2268
    126  CD2       27.6880   30.8830   53.2890 C.ar  226  HIS226      0.1154
    127  CE1       28.7920   31.1640   55.1640 C.ar  226  HIS226      0.1986
    128  NE2       27.9780   30.3490   54.5190 N.ar  226  HIS226     -0.2212
    129  N         31.8040   38.0860   51.2260 N.3   230  ARG230     -0.1245
    130  CA        32.9330   37.9560   50.3210 C.3   230  ARG230      0.1563
    131  C         33.0560   39.0870   49.3070 C.2   230  ARG230      0.2260
    132  O         34.1700   39.4630   48.9320 O.2   230  ARG230     -0.2867
    133  CB        32.8590   36.5900   49.6390 C.3   230  ARG230      0.0307
    134  CG        32.9320   35.4290   50.6490 C.3   230  ARG230      0.0489
    135  CD        32.5070   34.0970   50.0350 C.3   230  ARG230      0.2205
    136  NE        33.4870   33.5760   49.0900 N.pl3 230  ARG230     -0.0865
    137  CZ        34.5340   32.8250   49.4260 C.cat 230  ARG230      0.5346
    138  NH1       34.7430   32.4940   50.6960 N.pl3 230  ARG230      0.1354
    139  NH2       35.3780   32.4130   48.4890 N.pl3 230  ARG230      0.1354
    140  N         38.4230   30.8750   57.2440 N.3   238  PRO238     -0.2116
    141  CA        37.8930   29.5620   57.6240 C.3   238  PRO238      0.1372
    142  C         38.6680   28.8380   58.7300 C.2   238  PRO238      0.2244
    143  O         38.1610   27.8810   59.3140 O.2   238  PRO238     -0.2868
    144  CB        37.8880   28.7930   56.3010 C.3   238  PRO238      0.0268
    145  CG        38.9670   29.4710   55.4950 C.3   238  PRO238      0.0207
    146  CD        38.7300   30.9210   55.8050 C.3   238  PRO238      0.0892
    147  N         28.9740   16.3080   68.5290 N.3   250  TYR250     -0.1241
    148  CA        29.9790   17.0700   67.7970 C.3   250  TYR250      0.1605
    149  C         31.2890   16.9220   68.5700 C.2   250  TYR250      0.2264
    150  O         32.3480   16.6860   67.9900 O.2   250  TYR250     -0.2867
    151  CB        29.6080   18.5580   67.7340 C.3   250  TYR250      0.0534
    152  CG        28.7810   18.9740   66.5350 C.ar  250  TYR250     -0.0201
    153  CD1       27.4730   18.5210   66.3660 C.ar  250  TYR250     -0.0009
    154  CD2       29.3100   19.8330   65.5710 C.ar  250  TYR250     -0.0009
    155  CE1       26.7070   18.9190   65.2660 C.ar  250  TYR250      0.0417
    156  CE2       28.5560   20.2360   64.4700 C.ar  250  TYR250      0.0417
    157  CZ        27.2580   19.7760   64.3230 C.ar  250  TYR250      0.1957
    158  OH        26.5110   20.1790   63.2400 O.3   250  TYR250     -0.2866
    159  N         34.4070   17.8210   66.2160 N.3   255  LEU255     -0.1245
    160  CA        34.0260   18.6400   65.0740 C.3   255  LEU255      0.1561
    161  C         34.1140   20.1280   65.4000 C.2   255  LEU255      0.2260
    162  O         33.7860   20.5610   66.5050 O.2   255  LEU255     -0.2867
    163  CB        32.6060   18.2920   64.6190 C.3   255  LEU255      0.0270
    164  CG        32.3980   16.8730   64.0800 C.3   255  LEU255      0.0019
    165  CD1       30.9270   16.6630   63.7480 C.3   255  LEU255      0.0001
    166  CD2       33.2630   16.6610   62.8440 C.3   255  LEU255      0.0001
    167  N         30.4690   30.5690   59.3570 N.3   261  GLU261     -0.1245
    168  CA        29.1930   29.8580   59.2790 C.3   261  GLU261      0.1567
    169  C         28.2730   30.2600   60.4320 C.2   261  GLU261      0.2260
    170  O         27.0740   30.4730   60.2370 O.2   261  GLU261     -0.2867
    171  CB        29.4150   28.3400   59.2920 C.3   261  GLU261      0.0388
    172  CG        29.9980   27.7850   58.0020 C.3   261  GLU261      0.1160
    173  CD        29.0720   27.9440   56.8020 C.2   261  GLU261      0.3649
    174  OE1       27.8940   28.3120   56.9780 O.co2 261  GLU261     -0.2457
    175  OE2       29.5280   27.6840   55.6720 O.co2 261  GLU261     -0.2457
    176  N         15.7620   24.8970   60.4820 N.3   362  ARG362     -0.1245
    177  CA        16.6250   24.4120   61.5480 C.3   362  ARG362      0.1563
    178  C         16.7990   25.6000   62.5000 C.2   362  ARG362      0.2260
    179  O         16.8850   26.7520   62.0590 O.2   362  ARG362     -0.2867
    180  CB        17.9790   23.9550   60.9830 C.3   362  ARG362      0.0307
    181  CG        18.7490   25.0420   60.2450 C.3   362  ARG362      0.0489
    182  CD        20.0450   24.5160   59.6160 C.3   362  ARG362      0.2205
    183  NE        20.7300   25.5650   58.8590 N.pl3 362  ARG362     -0.0865
    184  CZ        21.7970   25.3700   58.0900 C.cat 362  ARG362      0.5346
    185  NH1       22.3230   24.1570   57.9660 N.pl3 362  ARG362      0.1354
    186  NH2       22.3320   26.3900   57.4300 N.pl3 362  ARG362      0.1354
    187  N         22.7320   25.9040   63.3640 N.3   365  TYR365     -0.1241
    188  CA        23.5930   25.3490   62.3290 C.3   365  TYR365      0.1605
    189  C         24.2070   24.0630   62.8800 C.2   365  TYR365      0.2264
    190  O         24.6160   23.1730   62.1300 O.2   365  TYR365     -0.2867
    191  CB        24.7080   26.3430   62.0120 C.3   365  TYR365      0.0534
    192  CG        25.5400   25.9810   60.8120 C.ar  365  TYR365     -0.0201
    193  CD1       25.0980   26.2730   59.5210 C.ar  365  TYR365     -0.0009
    194  CD2       26.7940   25.3880   60.9620 C.ar  365  TYR365     -0.0009
    195  CE1       25.8850   25.9880   58.4090 C.ar  365  TYR365      0.0417
    196  CE2       27.5880   25.0980   59.8570 C.ar  365  TYR365      0.0417
    197  CZ        27.1290   25.4070   58.5830 C.ar  365  TYR365      0.1957
    198  OH        27.9130   25.1480   57.4860 O.3   365  TYR365     -0.2866
    199  N         23.4410   21.0920   63.9520 N.3   367  ASN367     -0.1225
    200  CA        22.5140   19.9680   63.9880 C.3   367  ASN367      0.1785
    201  C         23.0390   18.8630   63.0760 C.2   367  ASN367      0.2597
    202  O         24.2250   18.8320   62.7460 O.2   367  ASN367     -0.2718
    203  CB        21.1250   20.4250   63.5310 C.3   367  ASN367      0.1169
    204  CG        21.0850   20.7790   62.0640 C.2   367  ASN367      0.2627
    205  OD1       22.1270   20.9070   61.4210 O.2   367  ASN367     -0.2716
    206  ND2       19.8800   20.9450   61.5230 N.am  367  ASN367     -0.0877
    207  N         22.1540   17.9490   62.6910 N.am  368  PHE368     -0.1962
    208  CA        22.5070   16.8510   61.8000 C.3   368  PHE368      0.1771
    209  C         21.4060   16.7040   60.7550 C.2   368  PHE368      0.2619
    210  O         20.2420   16.5130   61.1000 O.2   368  PHE368     -0.2715
    211  CB        22.6490   15.5510   62.5970 C.3   368  PHE368      0.0574
    212  CG        23.8850   15.5000   63.4490 C.ar  368  PHE368     -0.0200
    213  CD1       25.1150   15.1800   62.8850 C.ar  368  PHE368     -0.0042
    214  CD2       23.8240   15.7950   64.8060 C.ar  368  PHE368     -0.0042
    215  CE1       26.2740   15.1540   63.6580 C.ar  368  PHE368     -0.0003
    216  CE2       24.9780   15.7730   65.5890 C.ar  368  PHE368     -0.0003
    217  CZ        26.2050   15.4520   65.0110 C.ar  368  PHE368     -0.0000
    218  N         21.7690   16.8060   59.4810 N.am  369  ASP369     -0.1971
    219  CA        20.7870   16.6720   58.4080 C.3   369  ASP369      0.1709
    220  C         20.1600   15.2810   58.4670 C.2   369  ASP369      0.2293
    221  O         20.8220   14.3150   58.8300 O.2   369  ASP369     -0.2864
    222  CB        21.4540   16.8810   57.0460 C.3   369  ASP369      0.1436
    223  CG        21.6860   18.3490   56.7210 C.2   369  ASP369      0.3671
    224  OD1       21.4400   19.2110   57.5890 O.co2 369  ASP369     -0.2456
    225  OD2       22.1180   18.6440   55.5900 O.co2 369  ASP369     -0.2456
    226  N         26.2150    8.9860   60.3230 N.3   422  PHE422     -0.1241
    227  CA        27.2820    9.8540   60.8060 C.3   422  PHE422      0.1605
    228  C         28.2670    9.0850   61.6800 C.2   422  PHE422      0.2264
    229  O         29.4800    9.2730   61.5720 O.2   422  PHE422     -0.2867
    230  CB        26.7080   11.0350   61.5960 C.3   422  PHE422      0.0534
    231  CG        25.7680   11.9020   60.8020 C.ar  422  PHE422     -0.0203
    232  CD1       24.4240   11.5700   60.6860 C.ar  422  PHE422     -0.0042
    233  CD2       26.2290   13.0530   60.1720 C.ar  422  PHE422     -0.0042
    234  CE1       23.5510   12.3730   59.9550 C.ar  422  PHE422     -0.0003
    235  CE2       25.3620   13.8600   59.4380 C.ar  422  PHE422     -0.0003
    236  CZ        24.0230   13.5190   59.3320 C.ar  422  PHE422     -0.0000
@<TRIPOS>BOND
     1    59    58    1
     2    54    53    2
     3    57    58    1
     4    57    56    1
     5    55    56    1
     6    55    52    1
     7    53    52    1
     8    52    51    1
     9    51    47   am
    10    33    31   ar
    11    33    35   ar
    12    39    38    2
    13     8     9    1
    14    31    30   ar
    15    35    34   ar
    16    44    42   ar
    17    19    18    2
    18    47    46    1
    19    47    48    2
    20    46    45    1
    21    46    49    1
    22    41    42    1
    23    41    40    1
    24    38    45   am
    25    38    37    1
    26     9    10    1
    27     9    12    1
    28    16    17    1
    29    16    10   am
    30    42    43   ar
    31    30    29    1
    32    30    32   ar
    33    18    25   am
    34    18    17    1
    35    34    32   ar
    36    36    37    1
    37    36    27   am
    38    26    29    1
    39    26    25    1
    40    26    27    1
    41    14    12    1
    42    20    17    1
    43    20    21    1
    44    49    50    1
    45    10    11    2
    46   139   137    1
    47    37    40    1
    48    27    28    2
    49    12    13    1
    50   132   131    2
    51   114   115    1
    52   114   111    1
    53   136   137    2
    54   136   135    1
    55    21    22    1
    56    13    15    1
    57   131   130    1
    58   115   116    1
    59   137   138    1
    60   133   130    1
    61   133   134    1
    62   113   112    2
    63   112   111    1
    64   135   134    1
    65   117   116   ar
    66   116   118   ar
    67   111   110    1
    68   130   129    1
    69    99    97    1
    70    22    24   am
    71    22    23    2
    72    95    96    2
    73    95    94    1
    74    97    94    1
    75    97    98    1
    76    70    69   ar
    77    70    68   ar
    78   110   102   am
    79   121   122    2
    80   121   120    1
    81    69    67   ar
    82    94    93    1
    83    68    66   ar
    84    60    61    1
    85    89    88    2
    86   123   120    1
    87   123   124    1
    88    67    65   ar
    89     4     3    2
    90   102   103    2
    91   102   101    1
    92   120   119    1
    93     3     2    1
    94   100   101    1
    95    66    65   ar
    96    65    64    1
    97    61    64    1
    98    61    62    1
    99    88    87    1
   100   124   126   ar
   101   124   125   ar
   102   101   104    1
   103   126   128   ar
   104   104   105    1
   105     2     1    1
   106     2     5    1
   107     6     5    1
   108    62    63    2
   109    62    71   am
   110   107   105   ar
   111   107   109   ar
   112    92    90    1
   113    86    87    1
   114    90    87    1
   115    90    91    1
   116   125   127   ar
   117   105   106   ar
   118   128   127   ar
   119     5     7    1
   120    71    72    1
   121   109   108   ar
   122   145   146    1
   123   145   144    1
   124   225   223   ar
   125    72    73    1
   126   175   173   ar
   127   146   140    1
   128   106   108   ar
   129   144   141    1
   130   223   222    1
   131   223   224   ar
   132   173   174   ar
   133   173   172    1
   134    73    74    2
   135    73    75   am
   136   222   219    1
   137   140   141    1
   138   186   184    1
   139   198   197    1
   140   141   142    1
   141    75    76    1
   142   185   184    1
   143    84    82   ar
   144    84    85   ar
   145   172   171    1
   146   184   183    2
   147    82    80   ar
   148   219   220    1
   149   219   218    1
   150   195   197   ar
   151   195   193   ar
   152   220   221    2
   153   197   196   ar
   154   142   143    2
   155   183   182    1
   156    85    83   ar
   157    76    79    1
   158    76    77    1
   159   168   171    1
   160   168   167    1
   161   168   169    1
   162   236   235   ar
   163   236   234   ar
   164    80    79    1
   165    80    81   ar
   166   235   233   ar
   167   218   209   am
   168   193   192   ar
   169   182   181    1
   170    78    77    2
   171   196   194   ar
   172   234   232   ar
   173   233   231   ar
   174   170   169    2
   175   181   180    1
   176   226   227    1
   177    83    81   ar
   178   176   177    1
   179   232   231   ar
   180   209   210    2
   181   209   208    1
   182   231   230    1
   183   227   230    1
   184   227   228    1
   185   192   194   ar
   186   192   191    1
   187   180   177    1
   188   205   204    2
   189   206   204   am
   190   177   178    1
   191   229   228    2
   192   208   211    1
   193   208   207    1
   194   191   188    1
   195   179   178    2
   196   204   203    1
   197   190   189    2
   198   188   189    1
   199   188   187    1
   200   211   212    1
   201   207   201   am
   202   202   201    2
   203   166   164    1
   204   213   212   ar
   205   213   215   ar
   206   201   200    1
   207   158   157    1
   208   212   214   ar
   209   203   200    1
   210   215   217   ar
   211   165   164    1
   212   199   200    1
   213   164   163    1
   214   157   156   ar
   215   157   155   ar
   216   156   154   ar
   217   163   160    1
   218   214   216   ar
   219   217   216   ar
   220   160   161    1
   221   160   159    1
   222   155   153   ar
   223   161   162    2
   224   154   152   ar
   225   153   152   ar
   226   152   151    1
   227   151   148    1
   228   148   147    1
   229   148   149    1
   230   150   149    2
