@<TRIPOS>MOLECULE
tmp/3c89A00.pdb
 244 239 0 0 0
SMALL
GASTEIGER

@<TRIPOS>ATOM
      1  N         29.1480   10.6660   54.2790 N.3    68  PRO68      -0.2102
      2  CA        27.8470   10.6650   54.9600 C.3    68  PRO68       0.1504
      3  C         26.8120   11.5420   54.2480 C.2    68  PRO68       0.2575
      4  O         25.9840   11.0450   53.4820 O.2    68  PRO68      -0.2718
      5  CB        28.1780   11.2240   56.3580 C.3    68  PRO68       0.0282
      6  CG        29.6430   11.0220   56.4930 C.3    68  PRO68       0.0208
      7  CD        30.2310   11.3410   55.1570 C.3    68  PRO68       0.0893
      8  N         26.8370   12.8260   54.5710 N.am   69  VAL69      -0.1980
      9  CA        25.8940   13.7700   53.9880 C.3    69  VAL69       0.1595
     10  C         26.3330   14.1920   52.5810 C.2    69  VAL69       0.2287
     11  O         27.0590   15.1730   52.4030 O.2    69  VAL69      -0.2864
     12  CB        25.7340   15.0370   54.8690 C.3    69  VAL69       0.0276
     13  CG1       24.6980   15.9860   54.2570 C.3    69  VAL69       0.0022
     14  CG2       25.2980   14.6340   56.2710 C.3    69  VAL69       0.0022
     15  N         24.3130   18.0680   46.7740 N.3   160  ILE160     -0.1231
     16  CA        23.8810   18.8680   47.9130 C.3   160  ILE160      0.1692
     17  C         24.9510   19.6940   48.6140 C.2   160  ILE160      0.2592
     18  O         24.7030   20.2570   49.6810 O.2   160  ILE160     -0.2718
     19  CB        23.1320   18.0050   48.9400 C.3   160  ILE160      0.0266
     20  CG1       24.0010   16.8370   49.4030 C.3   160  ILE160      0.0019
     21  CG2       21.8440   17.5020   48.3190 C.3   160  ILE160      0.0020
     22  CD1       23.3310   15.9570   50.4500 C.3   160  ILE160      0.0001
     23  N         26.1350   19.7770   48.0160 N.am  161  GLN161     -0.1966
     24  CA        27.1920   20.5880   48.5980 C.3   161  GLN161      0.1733
     25  C         27.0850   21.9950   48.0250 C.2   161  GLN161      0.2616
     26  O         27.7910   22.3640   47.0800 O.2   161  GLN161     -0.2715
     27  CB        28.5710   19.9790   48.3240 C.3   161  GLN161      0.0408
     28  CG        29.0830   19.1220   49.4870 C.3   161  GLN161      0.0908
     29  CD        28.9150   19.8130   50.8420 C.2   161  GLN161      0.2608
     30  OE1       28.6890   19.1580   51.8650 O.2   161  GLN161     -0.2717
     31  NE2       29.0300   21.1390   50.8530 N.am  161  GLN161     -0.0878
     32  N         26.1630   22.7810   48.5730 N.am  162  PHE162     -0.1960
     33  CA        25.9700   24.1500   48.0940 C.3   162  PHE162      0.1771
     34  C         27.0280   25.0120   48.7670 C.2   162  PHE162      0.2619
     35  O         27.3530   24.7850   49.9330 O.2   162  PHE162     -0.2715
     36  CB        24.5940   24.6700   48.4910 C.3   162  PHE162      0.0574
     37  CG        23.4480   23.8540   47.9590 C.ar  162  PHE162     -0.0200
     38  CD1       23.6100   23.0150   46.8570 C.ar  162  PHE162     -0.0042
     39  CD2       22.1830   23.9670   48.5300 C.ar  162  PHE162     -0.0042
     40  CE1       22.5260   22.3060   46.3290 C.ar  162  PHE162     -0.0003
     41  CE2       21.0940   23.2670   48.0110 C.ar  162  PHE162     -0.0003
     42  CZ        21.2620   22.4350   46.9100 C.ar  162  PHE162     -0.0000
     43  N         27.5550   26.0100   48.0700 N.am  163  GLU163     -0.1963
     44  CA        28.5820   26.8340   48.6810 C.3   163  GLU163      0.1733
     45  C         28.9950   27.9660   47.7640 C.2   163  GLU163      0.2616
     46  O         28.7190   27.9330   46.5660 O.2   163  GLU163     -0.2715
     47  CB        29.8130   25.9760   48.9960 C.3   163  GLU163      0.0429
     48  CG        30.3920   25.2940   47.7630 C.3   163  GLU163      0.1163
     49  CD        31.6550   24.4960   48.0450 C.2   163  GLU163      0.3649
     50  OE1       32.1930   24.5790   49.1670 O.co2 163  GLU163     -0.2457
     51  OE2       32.1100   23.7750   47.1380 O.co2 163  GLU163     -0.2457
     52  N         29.6600   28.9660   48.3400 N.am  164  CYS164     -0.1954
     53  CA        30.1620   30.1000   47.5760 C.3   164  CYS164      0.1843
     54  C         31.5890   29.7990   47.1520 C.2   164  CYS164      0.2625
     55  O         32.4050   29.3320   47.9500 O.2   164  CYS164     -0.2714
     56  CB        30.1660   31.3720   48.4200 C.3   164  CYS164      0.0997
     57  SG        28.5780   32.1520   48.5720 S.3   164  CYS164     -0.0797
     58  N         31.8840   30.0580   45.8900 N.am  165  LYS165     -0.1977
     59  CA        33.2170   29.8350   45.3670 C.3   165  LYS165      0.1596
     60  C         33.6030   31.0950   44.6260 C.2   165  LYS165      0.2287
     61  O         32.7590   31.7360   44.0010 O.2   165  LYS165     -0.2864
     62  CB        33.2360   28.6450   44.4020 C.3   165  LYS165      0.0298
     63  CG        32.9220   27.3040   45.0440 C.3   165  LYS165      0.0038
     64  CD        33.4320   26.1660   44.1790 C.3   165  LYS165      0.0206
     65  CE        34.9500   26.2390   44.0260 C.3   165  LYS165      0.1093
     66  NZ        35.4740   25.2380   43.0600 N.3   165  LYS165     -0.1314
     67  N         16.2670   19.9070   51.9190 N.3   193  PHE193     -0.1227
     68  CA        16.6420   19.0730   53.0470 C.3   193  PHE193      0.1736
     69  C         15.5730   18.9340   54.1090 C.2   193  PHE193      0.2596
     70  O         14.7770   19.8140   54.3370 O.2   193  PHE193     -0.2718
     71  CB        17.9090   19.6630   53.6500 C.3   193  PHE193      0.0547
     72  CG        19.0040   19.8650   52.6430 C.ar  193  PHE193     -0.0202
     73  CD1       19.7700   18.7870   52.2180 C.ar  193  PHE193     -0.0042
     74  CD2       19.2560   21.1260   52.0970 C.ar  193  PHE193     -0.0042
     75  CE1       20.7760   18.9520   51.2670 C.ar  193  PHE193     -0.0003
     76  CE2       20.2640   21.3050   51.1410 C.ar  193  PHE193     -0.0003
     77  CZ        21.0240   20.2120   50.7280 C.ar  193  PHE193     -0.0000
     78  N         15.5790   17.7850   54.7600 N.am  194  GLY194     -0.1942
     79  CA        14.6060   17.5360   55.7960 C.3   194  GLY194      0.2014
     80  C         15.1920   17.6920   57.1760 C.2   194  GLY194      0.2638
     81  O         16.3120   17.2470   57.4410 O.2   194  GLY194     -0.2714
     82  N         14.4250   18.3220   58.0570 N.am  195  PHE195     -0.1973
     83  CA        14.8480   18.5330   59.4340 C.3   195  PHE195      0.1639
     84  C         13.7080   18.1430   60.3650 C.2   195  PHE195      0.2290
     85  O         12.6000   17.8360   59.9160 O.2   195  PHE195     -0.2864
     86  CB        15.2540   20.0000   59.6510 C.3   195  PHE195      0.0560
     87  CG        14.1200   20.9790   59.5190 C.ar  195  PHE195     -0.0200
     88  CD1       13.4030   21.3910   60.6380 C.ar  195  PHE195     -0.0042
     89  CD2       13.7510   21.4710   58.2700 C.ar  195  PHE195     -0.0042
     90  CE1       12.3310   22.2790   60.5160 C.ar  195  PHE195     -0.0003
     91  CE2       12.6800   22.3590   58.1360 C.ar  195  PHE195     -0.0003
     92  CZ        11.9700   22.7620   59.2600 C.ar  195  PHE195     -0.0000
     93  N         13.1080   22.0040   54.4060 N.3   214  THR214     -0.1218
     94  CA        13.6460   23.3520   54.4540 C.3   214  THR214      0.1862
     95  C         13.1390   24.0960   53.2190 C.2   214  THR214      0.2287
     96  O         13.1300   23.5420   52.1160 O.2   214  THR214     -0.2866
     97  CB        15.1870   23.3140   54.4280 C.3   214  THR214      0.1770
     98  OG1       15.6710   22.6390   55.5970 O.3   214  THR214     -0.2211
     99  CG2       15.7530   24.7140   54.3850 C.3   214  THR214      0.0375
    100  N         17.6700   28.4890   52.0840 N.3   219  THR219     -0.1218
    101  CA        18.9620   27.9290   51.7070 C.3   219  THR219      0.1862
    102  C         19.7150   28.8710   50.7610 C.2   219  THR219      0.2287
    103  O         20.9090   29.1110   50.9380 O.2   219  THR219     -0.2866
    104  CB        18.7670   26.5500   51.0490 C.3   219  THR219      0.1770
    105  OG1       18.0440   25.7100   51.9570 O.3   219  THR219     -0.2211
    106  CG2       20.1100   25.8960   50.7190 C.3   219  THR219      0.0375
    107  N         20.8590   31.9480   52.6210 N.3   222  HIS222     -0.1226
    108  CA        22.0340   31.6330   53.4330 C.3   222  HIS222      0.1752
    109  C         23.2820   31.8470   52.5730 C.2   222  HIS222      0.2595
    110  O         24.2390   32.5000   52.9890 O.2   222  HIS222     -0.2718
    111  CB        21.9500   30.1750   53.9020 C.3   222  HIS222      0.0759
    112  CG        23.1460   29.7020   54.6730 C.ar  222  HIS222      0.0818
    113  ND1       23.1590   29.6200   56.0470 N.ar  222  HIS222     -0.2268
    114  CD2       24.3530   29.2470   54.2580 C.ar  222  HIS222      0.1154
    115  CE1       24.3190   29.1310   56.4490 C.ar  222  HIS222      0.1986
    116  NE2       25.0630   28.8940   55.3820 N.ar  222  HIS222     -0.2212
    117  N         23.2670   31.3030   51.3600 N.am  223  GLU223     -0.1979
    118  CA        24.4180   31.4670   50.4840 C.3   223  GLU223      0.1602
    119  C         24.5910   32.9210   50.0550 C.2   223  GLU223      0.2287
    120  O         25.7140   33.4000   49.9200 O.2   223  GLU223     -0.2864
    121  CB        24.3000   30.5630   49.2570 C.3   223  GLU223      0.0415
    122  CG        24.3700   29.0750   49.5750 C.3   223  GLU223      0.1163
    123  CD        25.5600   28.6970   50.4480 C.2   223  GLU223      0.3649
    124  OE1       26.6640   29.2510   50.2480 O.co2 223  GLU223     -0.2457
    125  OE2       25.3900   27.8280   51.3300 O.co2 223  GLU223     -0.2457
    126  N         26.5110   34.7520   52.6680 N.3   226  HIS226     -0.1241
    127  CA        27.9390   34.4830   52.5770 C.3   226  HIS226      0.1621
    128  C         28.4850   35.3530   51.4430 C.2   226  HIS226      0.2264
    129  O         29.5320   35.9780   51.5820 O.2   226  HIS226     -0.2867
    130  CB        28.2160   33.0200   52.2180 C.3   226  HIS226      0.0745
    131  CG        28.0640   32.0560   53.3540 C.ar  226  HIS226      0.0817
    132  ND1       28.7390   32.1960   54.5520 N.ar  226  HIS226     -0.2268
    133  CD2       27.3860   30.8900   53.4390 C.ar  226  HIS226      0.1154
    134  CE1       28.4840   31.1500   55.3180 C.ar  226  HIS226      0.1986
    135  NE2       27.6680   30.3420   54.6670 N.ar  226  HIS226     -0.2212
    136  N         31.5610   38.0630   51.3890 N.3   230  ARG230     -0.1245
    137  CA        32.6830   37.9410   50.4720 C.3   230  ARG230      0.1563
    138  C         32.8010   39.0840   49.4620 C.2   230  ARG230      0.2260
    139  O         33.9120   39.4660   49.0870 O.2   230  ARG230     -0.2867
    140  CB        32.6080   36.5760   49.7840 C.3   230  ARG230      0.0307
    141  CG        32.6870   35.4150   50.7890 C.3   230  ARG230      0.0489
    142  CD        32.2680   34.0810   50.1790 C.3   230  ARG230      0.2205
    143  NE        33.2580   33.5450   49.2520 N.pl3 230  ARG230     -0.0865
    144  CZ        34.3080   32.8110   49.6110 C.cat 230  ARG230      0.5346
    145  NH1       34.5110   32.5110   50.8910 N.pl3 230  ARG230      0.1354
    146  NH2       35.1630   32.3880   48.6860 N.pl3 230  ARG230      0.1354
    147  N         28.7980   16.3130   68.6260 N.3   250  TYR250     -0.1241
    148  CA        29.7880   17.0910   67.8890 C.3   250  TYR250      0.1605
    149  C         31.1150   16.9440   68.6360 C.2   250  TYR250      0.2264
    150  O         32.1510   16.6460   68.0420 O.2   250  TYR250     -0.2867
    151  CB        29.4030   18.5770   67.8480 C.3   250  TYR250      0.0534
    152  CG        28.5560   19.0000   66.6640 C.ar  250  TYR250     -0.0201
    153  CD1       27.2410   18.5580   66.5190 C.ar  250  TYR250     -0.0009
    154  CD2       29.0720   19.8600   65.6960 C.ar  250  TYR250     -0.0009
    155  CE1       26.4580   18.9650   65.4330 C.ar  250  TYR250      0.0417
    156  CE2       28.2990   20.2720   64.6080 C.ar  250  TYR250      0.0417
    157  CZ        26.9950   19.8210   64.4840 C.ar  250  TYR250      0.1957
    158  OH        26.2290   20.2210   63.4080 O.3   250  TYR250     -0.2866
    159  N         34.1980   17.8920   66.3690 N.3   255  LEU255     -0.1245
    160  CA        33.7340   18.7040   65.2510 C.3   255  LEU255      0.1561
    161  C         33.8440   20.1960   65.5380 C.2   255  LEU255      0.2260
    162  O         33.5050   20.6640   66.6250 O.2   255  LEU255     -0.2867
    163  CB        32.2860   18.3540   64.8940 C.3   255  LEU255      0.0270
    164  CG        32.0140   16.9250   64.4170 C.3   255  LEU255      0.0019
    165  CD1       30.5820   16.8260   63.9080 C.3   255  LEU255      0.0001
    166  CD2       32.9910   16.5540   63.3080 C.3   255  LEU255      0.0001
    167  N         30.1810   30.6020   59.5120 N.3   261  GLU261     -0.1245
    168  CA        28.8920   29.9100   59.4440 C.3   261  GLU261      0.1567
    169  C         27.9750   30.3180   60.6040 C.2   261  GLU261      0.2260
    170  O         26.7760   30.5310   60.4110 O.2   261  GLU261     -0.2867
    171  CB        29.0850   28.3910   59.4650 C.3   261  GLU261      0.0388
    172  CG        29.7050   27.8050   58.2030 C.3   261  GLU261      0.1160
    173  CD        28.8350   27.9710   56.9560 C.2   261  GLU261      0.3649
    174  OE1       27.6560   28.3660   57.0700 O.co2 261  GLU261     -0.2457
    175  OE2       29.3370   27.6920   55.8480 O.co2 261  GLU261     -0.2457
    176  N         12.0990   26.1210   60.2140 N.3   361  ASN361     -0.1225
    177  CA        13.4780   25.9510   59.7660 C.3   361  ASN361      0.1785
    178  C         14.2990   25.4360   60.9440 C.2   361  ASN361      0.2597
    179  O         13.8420   25.4830   62.0900 O.2   361  ASN361     -0.2718
    180  CB        13.9770   27.3320   59.2840 C.3   361  ASN361      0.1169
    181  CG        15.3640   27.3030   58.6490 C.2   361  ASN361      0.2627
    182  OD1       16.3700   27.6070   59.3060 O.2   361  ASN361     -0.2716
    183  ND2       15.4200   26.9690   57.3670 N.am  361  ASN361     -0.0877
    184  N         15.4960   24.9260   60.6660 N.am  362  ARG362     -0.1979
    185  CA        16.3540   24.4520   61.7440 C.3   362  ARG362      0.1597
    186  C         16.5220   25.6380   62.7020 C.2   362  ARG362      0.2287
    187  O         16.5970   26.7970   62.2660 O.2   362  ARG362     -0.2864
    188  CB        17.7130   23.9880   61.1910 C.3   362  ARG362      0.0334
    189  CG        18.5220   25.0800   60.5020 C.3   362  ARG362      0.0492
    190  CD        19.7660   24.5400   59.7930 C.3   362  ARG362      0.2205
    191  NE        20.4320   25.5910   59.0220 N.pl3 362  ARG362     -0.0865
    192  CZ        21.4780   25.3920   58.2250 C.cat 362  ARG362      0.5346
    193  NH1       21.9870   24.1750   58.0890 N.pl3 362  ARG362      0.1354
    194  NH2       22.0090   26.4090   57.5550 N.pl3 362  ARG362      0.1354
    195  N         22.4470   25.9640   63.5740 N.3   365  TYR365     -0.1241
    196  CA        23.3070   25.4140   62.5370 C.3   365  TYR365      0.1605
    197  C         23.9180   24.1210   63.0720 C.2   365  TYR365      0.2264
    198  O         24.3020   23.2370   62.3070 O.2   365  TYR365     -0.2867
    199  CB        24.4260   26.4120   62.2100 C.3   365  TYR365      0.0534
    200  CG        25.2660   26.0610   60.9970 C.ar  365  TYR365     -0.0201
    201  CD1       24.8240   26.3540   59.7060 C.ar  365  TYR365     -0.0009
    202  CD2       26.5200   25.4590   61.1430 C.ar  365  TYR365     -0.0009
    203  CE1       25.6130   26.0640   58.5950 C.ar  365  TYR365      0.0417
    204  CE2       27.3150   25.1650   60.0390 C.ar  365  TYR365      0.0417
    205  CZ        26.8600   25.4700   58.7690 C.ar  365  TYR365      0.1957
    206  OH        27.6650   25.1990   57.6810 O.3   365  TYR365     -0.2866
    207  N         23.2040   21.1260   64.1140 N.3   367  ASN367     -0.1225
    208  CA        22.2820   20.0010   64.1250 C.3   367  ASN367      0.1785
    209  C         22.8290   18.9150   63.2120 C.2   367  ASN367      0.2597
    210  O         24.0140   18.9120   62.8650 O.2   367  ASN367     -0.2718
    211  CB        20.8940   20.4580   63.6400 C.3   367  ASN367      0.1169
    212  CG        20.8660   20.7820   62.1560 C.2   367  ASN367      0.2627
    213  OD1       21.9090   20.9120   61.5120 O.2   367  ASN367     -0.2716
    214  ND2       19.6640   20.9280   61.6060 N.am  367  ASN367     -0.0877
    215  N         21.9590   17.9860   62.8370 N.am  368  PHE368     -0.1962
    216  CA        22.3310   16.8980   61.9470 C.3   368  PHE368      0.1771
    217  C         21.2640   16.7410   60.8710 C.2   368  PHE368      0.2619
    218  O         20.0830   16.5830   61.1800 O.2   368  PHE368     -0.2715
    219  CB        22.4680   15.5920   62.7320 C.3   368  PHE368      0.0574
    220  CG        23.6900   15.5330   63.6060 C.ar  368  PHE368     -0.0200
    221  CD1       24.9350   15.2490   63.0540 C.ar  368  PHE368     -0.0042
    222  CD2       23.6050   15.7930   64.9720 C.ar  368  PHE368     -0.0042
    223  CE1       26.0790   15.2270   63.8440 C.ar  368  PHE368     -0.0003
    224  CE2       24.7470   15.7750   65.7720 C.ar  368  PHE368     -0.0003
    225  CZ        25.9850   15.4920   65.2050 C.ar  368  PHE368     -0.0000
    226  N         21.6760   16.7950   59.6180 N.am  369  ASP369     -0.1971
    227  CA        20.7250   16.6500   58.5280 C.3   369  ASP369      0.1709
    228  C         20.0630   15.2630   58.5910 C.2   369  ASP369      0.2293
    229  O         20.6600   14.2790   59.0220 O.2   369  ASP369     -0.2864
    230  CB        21.4250   16.8280   57.1960 C.3   369  ASP369      0.1436
    231  CG        21.4910   18.2970   56.7460 C.2   369  ASP369      0.3671
    232  OD1       21.3670   19.1870   57.6100 O.co2 369  ASP369     -0.2456
    233  OD2       21.6700   18.5750   55.5340 O.co2 369  ASP369     -0.2456
    234  N         26.0520    8.9180   60.4390 N.3   422  PHE422     -0.1241
    235  CA        27.1340    9.7360   60.9760 C.3   422  PHE422      0.1605
    236  C         28.0570    8.9040   61.8600 C.2   422  PHE422      0.2264
    237  O         29.1470    8.5130   61.4420 O.2   422  PHE422     -0.2867
    238  CB        26.5760   10.9110   61.7860 C.3   422  PHE422      0.0534
    239  CG        25.7100   11.8460   60.9890 C.ar  422  PHE422     -0.0203
    240  CD1       24.3620   11.5660   60.7830 C.ar  422  PHE422     -0.0042
    241  CD2       26.2430   13.0080   60.4400 C.ar  422  PHE422     -0.0042
    242  CE1       23.5570   12.4330   60.0440 C.ar  422  PHE422     -0.0003
    243  CE2       25.4470   13.8820   59.6980 C.ar  422  PHE422     -0.0003
    244  CZ        24.1010   13.5920   59.5010 C.ar  422  PHE422     -0.0000
@<TRIPOS>BOND
     1    66    65    1
     2    61    60    2
     3    65    64    1
     4    64    63    1
     5    62    63    1
     6    62    59    1
     7    60    59    1
     8    59    58    1
     9    58    54   am
    10    40    38   ar
    11    40    42   ar
    12    46    45    2
    13    15    16    1
    14    38    37   ar
    15    42    41   ar
    16    26    25    2
    17    51    49   ar
    18    54    53    1
    19    54    55    2
    20    53    52    1
    21    53    56    1
    22    48    49    1
    23    48    47    1
    24    45    52   am
    25    45    44    1
    26    16    17    1
    27    16    19    1
    28    37    36    1
    29    37    39   ar
    30    41    39   ar
    31    23    24    1
    32    23    17   am
    33    25    32   am
    34    25    24    1
    35    49    50   ar
    36    43    44    1
    37    43    34   am
    38    33    36    1
    39    33    32    1
    40    33    34    1
    41    21    19    1
    42    27    24    1
    43    27    28    1
    44    56    57    1
    45    17    18    2
    46    44    47    1
    47   146   144    1
    48    34    35    2
    49    19    20    1
    50   139   138    2
    51   143   144    2
    52   143   142    1
    53   121   122    1
    54   121   118    1
    55    20    22    1
    56   138   137    1
    57    28    29    1
    58   122   123    1
    59   144   145    1
    60   140   137    1
    61   140   141    1
    62   120   119    2
    63   119   118    1
    64   142   141    1
    65   124   123   ar
    66   123   125   ar
    67   137   136    1
    68   118   117    1
    69   106   104    1
    70    77    76   ar
    71    77    75   ar
    72   102   103    2
    73   102   101    1
    74    29    31   am
    75    29    30    2
    76   104   101    1
    77   104   105    1
    78    76    74   ar
    79    75    73   ar
    80   117   109   am
    81   128   129    2
    82   128   127    1
    83   101   100    1
    84    67    68    1
    85    74    72   ar
    86    96    95    2
    87   130   127    1
    88   130   131    1
    89    73    72   ar
    90    11    10    2
    91   109   110    2
    92   109   108    1
    93   127   126    1
    94    10     9    1
    95   107   108    1
    96    72    71    1
    97    68    71    1
    98    68    69    1
    99    95    94    1
   100   131   133   ar
   101   131   132   ar
   102   108   111    1
   103   133   135   ar
   104     4     3    2
   105   111   112    1
   106     9     8    1
   107     9    12    1
   108    69    70    2
   109    69    78   am
   110     3     8   am
   111     3     2    1
   112    13    12    1
   113   114   112   ar
   114   114   116   ar
   115     1     2    1
   116     1     7    1
   117    99    97    1
   118    93    94    1
   119    97    94    1
   120    97    98    1
   121   132   134   ar
   122   135   134   ar
   123   112   113   ar
   124    78    79    1
   125    12    14    1
   126     2     5    1
   127     7     6    1
   128   116   115   ar
   129   233   231   ar
   130    79    80    1
   131   175   173   ar
   132   113   115   ar
   133     5     6    1
   134   231   230    1
   135   231   232   ar
   136   173   174   ar
   137   173   172    1
   138    80    81    2
   139    80    82   am
   140   230   227    1
   141   183   181   am
   142   194   192    1
   143   206   205    1
   144    82    83    1
   145   193   192    1
   146    91    89   ar
   147    91    92   ar
   148   172   171    1
   149   192   191    2
   150    89    87   ar
   151   227   228    1
   152   227   226    1
   153   228   229    2
   154   203   205   ar
   155   203   201   ar
   156   181   180    1
   157   181   182    2
   158   205   204   ar
   159   191   190    1
   160    92    90   ar
   161   180   177    1
   162    83    86    1
   163    83    84    1
   164   168   171    1
   165   168   167    1
   166   168   169    1
   167   244   243   ar
   168   244   242   ar
   169    87    86    1
   170    87    88   ar
   171   226   217   am
   172   243   241   ar
   173   201   200   ar
   174   177   176    1
   175   177   178    1
   176   190   189    1
   177    85    84    2
   178   204   202   ar
   179   242   240   ar
   180   170   169    2
   181   234   235    1
   182   241   239   ar
   183   189   188    1
   184    90    88   ar
   185   184   178   am
   186   184   185    1
   187   240   239   ar
   188   217   218    2
   189   217   216    1
   190   178   179    2
   191   235   238    1
   192   235   236    1
   193   239   238    1
   194   200   202   ar
   195   200   199    1
   196   188   185    1
   197   237   236    2
   198   213   212    2
   199   214   212   am
   200   185   186    1
   201   216   219    1
   202   216   215    1
   203   212   211    1
   204   199   196    1
   205   187   186    2
   206   198   197    2
   207   196   197    1
   208   196   195    1
   209   219   220    1
   210   215   209   am
   211   210   209    2
   212   221   220   ar
   213   221   223   ar
   214   209   208    1
   215   166   164    1
   216   158   157    1
   217   220   222   ar
   218   211   208    1
   219   223   225   ar
   220   165   164    1
   221   207   208    1
   222   164   163    1
   223   157   156   ar
   224   157   155   ar
   225   156   154   ar
   226   163   160    1
   227   222   224   ar
   228   225   224   ar
   229   160   161    1
   230   160   159    1
   231   155   153   ar
   232   161   162    2
   233   154   152   ar
   234   153   152   ar
   235   152   151    1
   236   151   148    1
   237   148   147    1
   238   148   149    1
   239   150   149    2
