@<TRIPOS>MOLECULE
tmp/3c8bA00.pdb
 214 208 0 0 0
SMALL
GASTEIGER

@<TRIPOS>ATOM
      1  N         26.5500   12.8890   54.6130 N.3    70  VAL70      -0.1245
      2  CA        25.7280   13.9040   53.9710 C.3    70  VAL70       0.1561
      3  C         26.2480   14.2550   52.5790 C.2    70  VAL70       0.2260
      4  O         27.0770   15.1510   52.4240 O.2    70  VAL70      -0.2867
      5  CB        25.6750   15.1870   54.8340 C.3    70  VAL70       0.0252
      6  CG1       24.7640   16.2160   54.1880 C.3    70  VAL70       0.0019
      7  CG2       25.1820   14.8490   56.2340 C.3    70  VAL70       0.0019
      8  N         24.2460   18.1380   46.7650 N.3   161  ILE161     -0.1231
      9  CA        23.8150   18.9040   47.9290 C.3   161  ILE161      0.1692
     10  C         24.8800   19.7560   48.6060 C.2   161  ILE161      0.2592
     11  O         24.6270   20.3530   49.6490 O.2   161  ILE161     -0.2718
     12  CB        23.1450   17.9880   48.9740 C.3   161  ILE161      0.0266
     13  CG1       24.1530   16.9870   49.5380 C.3   161  ILE161      0.0019
     14  CG2       21.9790   17.2630   48.3230 C.3   161  ILE161      0.0020
     15  CD1       23.6060   16.1190   50.6610 C.3   161  ILE161      0.0001
     16  N         26.0670   19.8270   48.0150 N.am  162  GLN162     -0.1966
     17  CA        27.1210   20.6560   48.5840 C.3   162  GLN162      0.1733
     18  C         27.0350   22.0580   48.0060 C.2   162  GLN162      0.2616
     19  O         27.7740   22.4130   47.0880 O.2   162  GLN162     -0.2715
     20  CB        28.5020   20.0650   48.3060 C.3   162  GLN162      0.0408
     21  CG        28.8650   18.9260   49.2320 C.3   162  GLN162      0.0908
     22  CD        28.5920   19.2510   50.6880 C.2   162  GLN162      0.2608
     23  OE1       28.4610   18.3540   51.5260 O.2   162  GLN162     -0.2717
     24  NE2       28.5010   20.5420   50.9970 N.am  162  GLN162     -0.0878
     25  N         26.1070   22.8460   48.5370 N.am  163  PHE163     -0.1960
     26  CA        25.9280   24.2190   48.0900 C.3   163  PHE163      0.1771
     27  C         27.0130   25.0540   48.7560 C.2   163  PHE163      0.2619
     28  O         27.3860   24.8010   49.9030 O.2   163  PHE163     -0.2715
     29  CB        24.5570   24.7630   48.5150 C.3   163  PHE163      0.0574
     30  CG        23.3840   24.0020   47.9620 C.ar  163  PHE163     -0.0200
     31  CD1       23.5310   23.1210   46.8940 C.ar  163  PHE163     -0.0042
     32  CD2       22.1150   24.1850   48.5090 C.ar  163  PHE163     -0.0042
     33  CE1       22.4300   22.4380   46.3790 C.ar  163  PHE163     -0.0003
     34  CE2       21.0100   23.5080   47.9980 C.ar  163  PHE163     -0.0003
     35  CZ        21.1680   22.6320   46.9340 C.ar  163  PHE163     -0.0000
     36  N         27.5130   26.0610   48.0520 N.am  164  GLU164     -0.1963
     37  CA        28.5520   26.8950   48.6270 C.3   164  GLU164      0.1733
     38  C         28.9390   28.0340   47.7030 C.2   164  GLU164      0.2616
     39  O         28.6410   28.0070   46.5080 O.2   164  GLU164     -0.2715
     40  CB        29.7940   26.0460   48.9150 C.3   164  GLU164      0.0429
     41  CG        30.5070   25.5570   47.6650 C.3   164  GLU164      0.1163
     42  CD        31.5960   24.5390   47.9600 C.2   164  GLU164      0.3649
     43  OE1       32.2900   24.6840   48.9890 O.co2 164  GLU164     -0.2457
     44  OE2       31.7670   23.6020   47.1520 O.co2 164  GLU164     -0.2457
     45  N         29.5950   29.0390   48.2780 N.am  165  CYS165     -0.1954
     46  CA        30.0800   30.1860   47.5210 C.3   165  CYS165      0.1843
     47  C         31.5110   29.8970   47.0950 C.2   165  CYS165      0.2625
     48  O         32.3530   29.5130   47.9120 O.2   165  CYS165     -0.2714
     49  CB        30.0710   31.4520   48.3750 C.3   165  CYS165      0.0997
     50  SG        28.4600   32.2040   48.5660 S.3   165  CYS165     -0.0797
     51  N         31.7760   30.0690   45.8080 N.am  166  LYS166     -0.1977
     52  CA        33.1000   29.8420   45.2490 C.3   166  LYS166      0.1596
     53  C         33.4980   31.1340   44.5520 C.2   166  LYS166      0.2287
     54  O         32.6540   31.8160   43.9710 O.2   166  LYS166     -0.2864
     55  CB        33.0620   28.7040   44.2230 C.3   166  LYS166      0.0298
     56  CG        32.6540   27.3330   44.7640 C.3   166  LYS166      0.0038
     57  CD        33.8400   26.5510   45.3410 C.3   166  LYS166      0.0206
     58  CE        34.2370   27.0370   46.7220 C.3   166  LYS166      0.1093
     59  NZ        35.3740   26.2530   47.3010 N.3   166  LYS166     -0.1314
     60  N         16.0830   19.9150   51.8910 N.3   194  PHE194     -0.1241
     61  CA        16.4470   19.0510   52.9950 C.3   194  PHE194      0.1605
     62  C         15.4300   18.9520   54.1090 C.2   194  PHE194      0.2264
     63  O         14.7050   19.9030   54.3950 O.2   194  PHE194     -0.2867
     64  CB        17.7830   19.5540   53.5150 C.3   194  PHE194      0.0534
     65  CG        18.7730   19.7850   52.4160 C.ar  194  PHE194     -0.0203
     66  CD1       19.4940   18.7240   51.8880 C.ar  194  PHE194     -0.0042
     67  CD2       18.8990   21.0400   51.8260 C.ar  194  PHE194     -0.0042
     68  CE1       20.3260   18.9040   50.7850 C.ar  194  PHE194     -0.0003
     69  CE2       19.7270   21.2250   50.7210 C.ar  194  PHE194     -0.0003
     70  CZ        20.4410   20.1550   50.2010 C.ar  194  PHE194     -0.0000
     71  N         17.5460   28.5620   52.0460 N.3   220  THR220     -0.1218
     72  CA        18.8370   28.0000   51.6680 C.3   220  THR220      0.1862
     73  C         19.5850   28.9320   50.7250 C.2   220  THR220      0.2287
     74  O         20.7760   29.1600   50.8960 O.2   220  THR220     -0.2866
     75  CB        18.6560   26.6170   51.0230 C.3   220  THR220      0.1770
     76  OG1       17.9630   25.7660   51.9500 O.3   220  THR220     -0.2211
     77  CG2       20.0000   25.9980   50.6860 C.3   220  THR220      0.0375
     78  N         20.7370   32.0140   52.5760 N.3   223  HIS223     -0.1226
     79  CA        21.9150   31.7180   53.3890 C.3   223  HIS223      0.1752
     80  C         23.1720   31.9200   52.5330 C.2   223  HIS223      0.2595
     81  O         24.1300   32.5730   52.9620 O.2   223  HIS223     -0.2718
     82  CB        21.8250   30.2710   53.8960 C.3   223  HIS223      0.0759
     83  CG        23.0460   29.7800   54.6210 C.ar  223  HIS223      0.0818
     84  ND1       23.0900   29.6250   55.9900 N.ar  223  HIS223     -0.2268
     85  CD2       24.2450   29.3470   54.1580 C.ar  223  HIS223      0.1154
     86  CE1       24.2590   29.1150   56.3390 C.ar  223  HIS223      0.1986
     87  NE2       24.9780   28.9370   55.2460 N.ar  223  HIS223     -0.2212
     88  N         23.1620   31.3860   51.3170 N.am  224  GLU224     -0.1979
     89  CA        24.3270   31.5420   50.4510 C.3   224  GLU224      0.1602
     90  C         24.5110   32.9940   50.0170 C.2   224  GLU224      0.2287
     91  O         25.6420   33.4630   49.8720 O.2   224  GLU224     -0.2864
     92  CB        24.2280   30.6350   49.2200 C.3   224  GLU224      0.0415
     93  CG        24.2670   29.1430   49.5400 C.3   224  GLU224      0.1163
     94  CD        25.4390   28.7600   50.4340 C.2   224  GLU224      0.3649
     95  OE1       26.5550   29.2840   50.2340 O.co2 224  GLU224     -0.2457
     96  OE2       25.2510   27.9210   51.3390 O.co2 224  GLU224     -0.2457
     97  N         26.3910   34.7910   52.6640 N.3   227  HIS227     -0.1241
     98  CA        27.8200   34.5280   52.5660 C.3   227  HIS227      0.1621
     99  C         28.3690   35.3940   51.4340 C.2   227  HIS227      0.2264
    100  O         29.4140   36.0190   51.5780 O.2   227  HIS227     -0.2867
    101  CB        28.1100   33.0670   52.2080 C.3   227  HIS227      0.0745
    102  CG        27.9910   32.1090   53.3540 C.ar  227  HIS227      0.0817
    103  ND1       28.6800   32.2690   54.5380 N.ar  227  HIS227     -0.2268
    104  CD2       27.3250   30.9350   53.4600 C.ar  227  HIS227      0.1154
    105  CE1       28.4470   31.2300   55.3230 C.ar  227  HIS227      0.1986
    106  NE2       27.6310   30.4060   54.6920 N.ar  227  HIS227     -0.2212
    107  N         31.4610   38.1190   51.3810 N.3   231  ARG231     -0.1245
    108  CA        32.5830   37.9770   50.4680 C.3   231  ARG231      0.1563
    109  C         32.7140   39.1210   49.4610 C.2   231  ARG231      0.2260
    110  O         33.8270   39.4940   49.0960 O.2   231  ARG231     -0.2867
    111  CB        32.4870   36.6100   49.7800 C.3   231  ARG231      0.0307
    112  CG        32.6180   35.4520   50.7880 C.3   231  ARG231      0.0489
    113  CD        32.2200   34.1170   50.1880 C.3   231  ARG231      0.2205
    114  NE        33.1910   33.6190   49.2210 N.pl3 231  ARG231     -0.0865
    115  CZ        34.2700   32.9050   49.5310 C.cat 231  ARG231      0.5346
    116  NH1       34.5290   32.5950   50.7970 N.pl3 231  ARG231      0.1354
    117  NH2       35.0820   32.4900   48.5700 N.pl3 231  ARG231      0.1354
    118  N         38.1310   30.9790   57.4040 N.3   239  PRO239     -0.2116
    119  CA        37.6470   29.6510   57.7870 C.3   239  PRO239      0.1372
    120  C         38.4520   28.9640   58.8950 C.2   239  PRO239      0.2244
    121  O         37.9930   27.9770   59.4710 O.2   239  PRO239     -0.2868
    122  CB        37.6720   28.8770   56.4660 C.3   239  PRO239      0.0268
    123  CG        38.7520   29.5650   55.6790 C.3   239  PRO239      0.0207
    124  CD        38.4860   31.0170   55.9750 C.3   239  PRO239      0.0892
    125  N         28.6000   16.3390   68.5710 N.3   251  TYR251     -0.1241
    126  CA        29.6000   17.1050   67.8350 C.3   251  TYR251      0.1605
    127  C         30.9290   16.9120   68.5690 C.2   251  TYR251      0.2264
    128  O         31.9590   16.6310   67.9590 O.2   251  TYR251     -0.2867
    129  CB        29.2580   18.6000   67.8230 C.3   251  TYR251      0.0534
    130  CG        28.4290   19.0570   66.6430 C.ar  251  TYR251     -0.0201
    131  CD1       27.1210   18.6190   66.4700 C.ar  251  TYR251     -0.0009
    132  CD2       28.9560   19.9350   65.6990 C.ar  251  TYR251     -0.0009
    133  CE1       26.3510   19.0440   65.3850 C.ar  251  TYR251      0.0417
    134  CE2       28.1960   20.3660   64.6070 C.ar  251  TYR251      0.0417
    135  CZ        26.8950   19.9160   64.4600 C.ar  251  TYR251      0.1957
    136  OH        26.1330   20.3340   63.3900 O.3   251  TYR251     -0.2866
    137  N         34.0890   17.8640   66.2610 N.3   256  LEU256     -0.1245
    138  CA        33.6140   18.6820   65.1520 C.3   256  LEU256      0.1561
    139  C         33.7190   20.1700   65.4580 C.2   256  LEU256      0.2260
    140  O         33.4110   20.6160   66.5610 O.2   256  LEU256     -0.2867
    141  CB        32.1650   18.3180   64.8130 C.3   256  LEU256      0.0270
    142  CG        31.9400   16.8690   64.3680 C.3   256  LEU256      0.0019
    143  CD1       30.4500   16.6130   64.1860 C.3   256  LEU256      0.0001
    144  CD2       32.6920   16.6060   63.0690 C.3   256  LEU256      0.0001
    145  N         30.0650   30.6490   59.4860 N.3   262  GLU262     -0.1245
    146  CA        28.7710   29.9670   59.3960 C.3   262  GLU262      0.1567
    147  C         27.8570   30.3770   60.5530 C.2   262  GLU262      0.2260
    148  O         26.6670   30.6150   60.3540 O.2   262  GLU262     -0.2867
    149  CB        28.9420   28.4440   59.4110 C.3   262  GLU262      0.0388
    150  CG        29.5350   27.8470   58.1440 C.3   262  GLU262      0.1160
    151  CD        28.6400   28.0310   56.9280 C.2   262  GLU262      0.3649
    152  OE1       27.4590   28.3870   57.0910 O.co2 262  GLU262     -0.2457
    153  OE2       29.1160   27.8090   55.8040 O.co2 262  GLU262     -0.2457
    154  N         15.4090   24.9960   60.6420 N.3   363  ARG363     -0.1245
    155  CA        16.2620   24.5250   61.7260 C.3   363  ARG363      0.1563
    156  C         16.4230   25.7210   62.6750 C.2   363  ARG363      0.2260
    157  O         16.4910   26.8730   62.2310 O.2   363  ARG363     -0.2867
    158  CB        17.6270   24.0730   61.1830 C.3   363  ARG363      0.0307
    159  CG        18.4020   25.1530   60.4490 C.3   363  ARG363      0.0489
    160  CD        19.6630   24.6050   59.7890 C.3   363  ARG363      0.2205
    161  NE        20.3270   25.6280   58.9840 N.pl3 363  ARG363     -0.0865
    162  CZ        21.3680   25.4110   58.1830 C.cat 363  ARG363      0.5346
    163  NH1       21.8870   24.1950   58.0630 N.pl3 363  ARG363      0.1354
    164  NH2       21.8920   26.4170   57.4990 N.pl3 363  ARG363      0.1354
    165  N         22.3300   26.0140   63.5300 N.3   366  TYR366     -0.1241
    166  CA        23.1820   25.4510   62.4920 C.3   366  TYR366      0.1605
    167  C         23.7950   24.1580   63.0350 C.2   366  TYR366      0.2264
    168  O         24.1720   23.2590   62.2780 O.2   366  TYR366     -0.2867
    169  CB        24.2970   26.4470   62.1630 C.3   366  TYR366      0.0534
    170  CG        25.1240   26.1020   60.9430 C.ar  366  TYR366     -0.0201
    171  CD1       24.6700   26.3990   59.6590 C.ar  366  TYR366     -0.0009
    172  CD2       26.3800   25.5030   61.0730 C.ar  366  TYR366     -0.0009
    173  CE1       25.4470   26.1170   58.5350 C.ar  366  TYR366      0.0417
    174  CE2       27.1630   25.2150   59.9530 C.ar  366  TYR366      0.0417
    175  CZ        26.6930   25.5260   58.6910 C.ar  366  TYR366      0.1957
    176  OH        27.4760   25.2450   57.5970 O.3   366  TYR366     -0.2866
    177  N         23.0680   21.1900   64.0870 N.3   368  ASN368     -0.1225
    178  CA        22.1370   20.0730   64.0990 C.3   368  ASN368      0.1785
    179  C         22.6800   18.9730   63.2030 C.2   368  ASN368      0.2597
    180  O         23.8600   18.9660   62.8470 O.2   368  ASN368     -0.2718
    181  CB        20.7560   20.5330   63.6040 C.3   368  ASN368      0.1169
    182  CG        20.7420   20.8500   62.1120 C.2   368  ASN368      0.2627
    183  OD1       21.7890   20.8970   61.4580 O.2   368  ASN368     -0.2716
    184  ND2       19.5500   21.0720   61.5660 N.am  368  ASN368     -0.0877
    185  N         21.8090   18.0390   62.8460 N.am  369  PHE369     -0.1962
    186  CA        22.1890   16.9290   61.9830 C.3   369  PHE369      0.1771
    187  C         21.1770   16.7630   60.8810 C.2   369  PHE369      0.2619
    188  O         19.9550   16.6050   61.1580 O.2   369  PHE369     -0.2715
    189  CB        22.3110   15.6140   62.7910 C.3   369  PHE369      0.0574
    190  CG        23.5310   15.5600   63.6850 C.ar  369  PHE369     -0.0200
    191  CD1       24.7770   15.2630   63.1480 C.ar  369  PHE369     -0.0042
    192  CD2       23.4420   15.8580   65.0450 C.ar  369  PHE369     -0.0042
    193  CE1       25.9180   15.2600   63.9420 C.ar  369  PHE369     -0.0003
    194  CE2       24.5930   15.8600   65.8560 C.ar  369  PHE369     -0.0003
    195  CZ        25.8320   15.5610   65.2920 C.ar  369  PHE369     -0.0000
    196  N         21.6810   16.7500   59.6440 N.am  370  ASP370     -0.1971
    197  CA        20.7900   16.6130   58.5060 C.3   370  ASP370      0.1709
    198  C         20.0050   15.3150   58.6110 C.2   370  ASP370      0.2293
    199  O         20.5330   14.3330   59.1370 O.2   370  ASP370     -0.2864
    200  CB        21.5650   16.6390   57.1840 C.3   370  ASP370      0.1436
    201  CG        21.7690   18.0530   56.6510 C.2   370  ASP370      0.3671
    202  OD1       22.4620   18.2010   55.6150 O.co2 370  ASP370     -0.2456
    203  OD2       21.2320   19.0030   57.2660 O.co2 370  ASP370     -0.2456
    204  N         25.8940    9.0360   60.3840 N.3   423  PHE423     -0.1241
    205  CA        26.9790    9.8810   60.8700 C.3   423  PHE423      0.1605
    206  C         27.9880    9.0850   61.6900 C.2   423  PHE423      0.2264
    207  O         29.1850    9.0990   61.3960 O.2   423  PHE423     -0.2867
    208  CB        26.4280   11.0350   61.7120 C.3   423  PHE423      0.0534
    209  CG        25.5130   11.9560   60.9570 C.ar  423  PHE423     -0.0203
    210  CD1       24.1720   11.6320   60.7660 C.ar  423  PHE423     -0.0042
    211  CD2       25.9950   13.1500   60.4270 C.ar  423  PHE423     -0.0042
    212  CE1       23.3230   12.4880   60.0610 C.ar  423  PHE423     -0.0003
    213  CE2       25.1550   14.0110   59.7210 C.ar  423  PHE423     -0.0003
    214  CZ        23.8160   13.6770   59.5380 C.ar  423  PHE423     -0.0000
@<TRIPOS>BOND
     1    54    53    2
     2    55    56    1
     3    55    52    1
     4    53    52    1
     5    56    57    1
     6    52    51    1
     7    57    58    1
     8    51    47   am
     9    33    31   ar
    10    33    35   ar
    11    39    38    2
    12    58    59    1
    13     8     9    1
    14    31    30   ar
    15    35    34   ar
    16    19    18    2
    17    47    46    1
    18    47    48    2
    19    44    42   ar
    20    46    45    1
    21    46    49    1
    22    41    42    1
    23    41    40    1
    24    38    45   am
    25    38    37    1
    26     9    10    1
    27     9    12    1
    28    42    43   ar
    29    30    32   ar
    30    30    29    1
    31    34    32   ar
    32    18    25   am
    33    18    17    1
    34    16    17    1
    35    16    10   am
    36    36    37    1
    37    36    27   am
    38    26    29    1
    39    26    25    1
    40    26    27    1
    41    20    17    1
    42    20    21    1
    43    14    12    1
    44    49    50    1
    45   117   115    1
    46    10    11    2
    47    37    40    1
    48    27    28    2
    49    12    13    1
    50   110   109    2
    51    92    93    1
    52    92    89    1
    53   114   115    2
    54   114   113    1
    55    21    22    1
    56   109   108    1
    57   115   116    1
    58    13    15    1
    59    93    94    1
    60   111   108    1
    61   111   112    1
    62    91    90    2
    63    90    89    1
    64   113   112    1
    65    70    69   ar
    66    70    68   ar
    67    95    94   ar
    68    94    96   ar
    69    89    88    1
    70   108   107    1
    71    77    75    1
    72    22    24   am
    73    22    23    2
    74    69    67   ar
    75    73    74    2
    76    73    72    1
    77    68    66   ar
    78    75    72    1
    79    75    76    1
    80    88    80   am
    81    99   100    2
    82    99    98    1
    83    72    71    1
    84    67    65   ar
    85    66    65   ar
    86    60    61    1
    87   101    98    1
    88   101   102    1
    89    65    64    1
    90     4     3    2
    91    80    81    2
    92    80    79    1
    93    98    97    1
    94    78    79    1
    95     3     2    1
    96    61    64    1
    97    61    62    1
    98   102   104   ar
    99   102   103   ar
   100    79    82    1
   101   104   106   ar
   102    82    83    1
   103     2     1    1
   104     2     5    1
   105    62    63    2
   106    85    83   ar
   107    85    87   ar
   108     6     5    1
   109   103   105   ar
   110    83    84   ar
   111   106   105   ar
   112     5     7    1
   113    87    86   ar
   114   202   201   ar
   115   123   124    1
   116   123   122    1
   117   153   151   ar
   118   124   118    1
   119    84    86   ar
   120   122   119    1
   121   201   200    1
   122   201   203   ar
   123   151   152   ar
   124   151   150    1
   125   200   197    1
   126   118   119    1
   127   164   162    1
   128   176   175    1
   129   119   120    1
   130   163   162    1
   131   150   149    1
   132   162   161    2
   133   197   198    1
   134   197   196    1
   135   173   175   ar
   136   173   171   ar
   137   198   199    2
   138   175   174   ar
   139   120   121    2
   140   161   160    1
   141   146   149    1
   142   146   145    1
   143   146   147    1
   144   214   213   ar
   145   214   212   ar
   146   196   187   am
   147   171   170   ar
   148   213   211   ar
   149   160   159    1
   150   174   172   ar
   151   212   210   ar
   152   148   147    2
   153   204   205    1
   154   211   209   ar
   155   159   158    1
   156   154   155    1
   157   210   209   ar
   158   205   206    1
   159   205   208    1
   160   187   188    2
   161   187   186    1
   162   170   172   ar
   163   170   169    1
   164   209   208    1
   165   158   155    1
   166   207   206    2
   167   183   182    2
   168   184   182   am
   169   155   156    1
   170   186   189    1
   171   186   185    1
   172   182   181    1
   173   169   166    1
   174   157   156    2
   175   168   167    2
   176   166   167    1
   177   166   165    1
   178   189   190    1
   179   185   179   am
   180   180   179    2
   181   144   142    1
   182   191   190   ar
   183   191   193   ar
   184   179   178    1
   185   136   135    1
   186   181   178    1
   187   190   192   ar
   188   193   195   ar
   189   177   178    1
   190   143   142    1
   191   142   141    1
   192   135   134   ar
   193   135   133   ar
   194   134   132   ar
   195   141   138    1
   196   192   194   ar
   197   138   139    1
   198   138   137    1
   199   195   194   ar
   200   133   131   ar
   201   139   140    2
   202   132   130   ar
   203   131   130   ar
   204   130   129    1
   205   129   126    1
   206   126   127    1
   207   126   125    1
   208   128   127    2
