@<TRIPOS>MOLECULE
tmp/3c8eA00.pdb
 158 154 0 0 0
SMALL
GASTEIGER

@<TRIPOS>ATOM
      1  N         45.9400   61.8650   -1.1200 N.3    21  ILE21      -0.1231
      2  CA        46.1640   63.1110   -0.3840 C.3    21  ILE21       0.1692
      3  C         47.1640   63.0240    0.7790 C.2    21  ILE21       0.2592
      4  O         47.8360   64.0340    1.0940 O.2    21  ILE21      -0.2718
      5  CB        44.8350   63.8080    0.0690 C.3    21  ILE21       0.0266
      6  CG1       44.0200   62.8740    0.9440 C.3    21  ILE21       0.0019
      7  CG2       44.0500   64.2710   -1.1210 C.3    21  ILE21       0.0020
      8  CD1       42.9070   63.6210    1.7520 C.3    21  ILE21       0.0001
      9  N         47.2820   61.8550    1.4050 N.am   22  ASN22      -0.1974
     10  CA        48.1420   61.7620    2.5720 C.3    22  ASN22       0.1688
     11  C         49.5900   61.7540    2.1330 C.2    22  ASN22       0.2292
     12  O         49.9640   61.0250    1.1910 O.2    22  ASN22      -0.2864
     13  CB        47.8510   60.5030    3.3620 C.3    22  ASN22       0.1181
     14  CG        46.4840   60.5400    4.0770 C.2    22  ASN22       0.2629
     15  OD1       45.8270   61.5740    4.1660 O.2    22  ASN22      -0.2716
     16  ND2       46.0840   59.3910    4.6150 N.am   22  ASN22      -0.0877
     17  N         32.0690   67.9170    7.0430 N.3    48  THR48      -0.1204
     18  CA        32.3790   66.7740    7.8800 C.3    48  THR48       0.1979
     19  C         32.0720   67.1530    9.3400 C.2    48  THR48       0.2460
     20  O         31.5880   68.2200    9.6090 O.2    48  THR48      -0.2732
     21  CB        33.8780   66.5580    7.8490 C.3    48  THR48       0.1783
     22  OG1       34.4660   67.6830    8.5040 O.3    48  THR48      -0.2211
     23  CG2       34.4050   66.4420    6.4130 C.3    48  THR48       0.0376
     24  N         32.2850   66.2580   10.3380 N.am   49  PRO49      -0.2717
     25  CA        31.9270   66.6730   11.7170 C.3    49  PRO49       0.1535
     26  C         32.6610   67.9410   12.1090 C.2    49  PRO49       0.2598
     27  O         32.1030   68.7780   12.8230 O.2    49  PRO49      -0.2715
     28  CB        32.3910   65.5040   12.5410 C.3    49  PRO49       0.0310
     29  CG        32.1540   64.3270   11.6120 C.3    49  PRO49       0.0237
     30  CD        32.6450   64.8160   10.2640 C.3    49  PRO49       0.0939
     31  N         33.8850   68.1470   11.6160 N.am   50  ASN50      -0.1973
     32  CA        34.6120   69.3620   12.0380 C.3    50  ASN50       0.1688
     33  C         34.1370   70.6510   11.4060 C.2    50  ASN50       0.2292
     34  O         34.0630   71.6820   12.0690 O.2    50  ASN50      -0.2864
     35  CB        36.0840   69.1820   11.8370 C.3    50  ASN50       0.1181
     36  CG        36.6180   68.0990   12.7320 C.2    50  ASN50       0.2629
     37  OD1       36.2640   68.0310   13.9550 O.2    50  ASN50      -0.2716
     38  ND2       37.5080   67.2570   12.1810 N.am   50  ASN50      -0.0877
     39  N         30.7280   71.7380   13.1960 N.3    53  LYS53      -0.1245
     40  CA        30.7710   72.4620   14.4660 C.3    53  LYS53       0.1561
     41  C         30.6670   73.9680   14.2170 C.2    53  LYS53       0.2260
     42  O         29.9930   74.6910   14.9740 O.2    53  LYS53      -0.2867
     43  CB        32.1070   72.2630   15.1520 C.3    53  LYS53       0.0271
     44  CG        32.4400   70.8470   15.4510 C.3    53  LYS53       0.0035
     45  CD        33.8900   70.7810   15.9470 C.3    53  LYS53       0.0206
     46  CE        34.3900   69.3380   16.2530 C.3    53  LYS53       0.1093
     47  NZ        35.9130   69.3880   16.4990 N.3    53  LYS53      -0.1314
     48  N         38.3230   68.0240    0.2430 N.3    78  ILE78      -0.1245
     49  CA        39.5650   67.5000    0.7330 C.3    78  ILE78       0.1561
     50  C         39.9710   66.2670   -0.0900 C.2    78  ILE78       0.2260
     51  O         41.1590   65.9670   -0.2080 O.2    78  ILE78      -0.2867
     52  CB        39.5290   67.2350    2.3020 C.3    78  ILE78       0.0252
     53  CG1       38.5500   66.1050    2.6650 C.3    78  ILE78       0.0019
     54  CG2       39.3130   68.5580    3.0550 C.3    78  ILE78       0.0019
     55  CD1       38.6560   65.5970    4.1460 C.3    78  ILE78       0.0001
     56  N         42.7510   71.4810   -0.0440 N.3    83  GLN83      -0.1231
     57  CA        43.3970   71.9400    1.1740 C.3    83  GLN83       0.1698
     58  C         44.8650   72.1760    0.9680 C.2    83  GLN83       0.2592
     59  O         45.5040   72.6510    1.8650 O.2    83  GLN83      -0.2718
     60  CB        43.1550   70.9440    2.3540 C.3    83  GLN83       0.0381
     61  CG        43.8480   69.5890    2.2010 C.3    83  GLN83       0.0905
     62  CD        43.1030   68.6050    1.3140 C.2    83  GLN83       0.2608
     63  OE1       42.5030   68.9390    0.2800 O.2    83  GLN83      -0.2717
     64  NE2       43.1930   67.3300    1.7110 N.am   83  GLN83      -0.0878
     65  N         45.4120   71.8390   -0.2120 N.am   84  PHE84      -0.1976
     66  CA        46.8490   72.0670   -0.4460 C.3    84  PHE84       0.1639
     67  C         47.0600   73.1490   -1.4940 C.2    84  PHE84       0.2290
     68  O         48.1610   73.2330   -2.0660 O.2    84  PHE84      -0.2864
     69  CB        47.6060   70.7780   -0.8550 C.3    84  PHE84       0.0560
     70  CG        47.3160   69.5950    0.0440 C.ar   84  PHE84      -0.0200
     71  CD1       47.8100   69.5710    1.3470 C.ar   84  PHE84      -0.0042
     72  CD2       46.5050   68.5530   -0.4120 C.ar   84  PHE84      -0.0042
     73  CE1       47.5070   68.4740    2.1810 C.ar   84  PHE84      -0.0003
     74  CE2       46.2340   67.4670    0.3880 C.ar   84  PHE84      -0.0003
     75  CZ        46.7270   67.4490    1.7090 C.ar   84  PHE84      -0.0000
     76  N         48.4780   73.7630    8.3350 N.3    94  ASN94      -0.1225
     77  CA        48.2700   72.3500    8.6050 C.3    94  ASN94       0.1785
     78  C         47.3780   71.7340    7.5010 C.2    94  ASN94       0.2598
     79  O         47.1790   70.5230    7.5370 O.2    94  ASN94      -0.2718
     80  CB        47.5430   72.2010    9.9500 C.3    94  ASN94       0.1169
     81  CG        47.5210   70.7300   10.4750 C.2    94  ASN94       0.2627
     82  OD1       48.5160   69.9850   10.4110 O.2    94  ASN94      -0.2716
     83  ND2       46.3610   70.2960   10.9400 N.am   94  ASN94      -0.0877
     84  N         46.7890   72.5170    6.5540 N.am   95  SER95      -0.1938
     85  CA        46.0140   71.9600    5.4330 C.3    95  SER95       0.2055
     86  C         44.8390   71.1070    5.8720 C.2    95  SER95       0.2643
     87  O         44.5880   70.0380    5.3160 O.2    95  SER95      -0.2714
     88  CB        46.9170   71.2200    4.3960 C.3    95  SER95       0.2130
     89  OG        47.6530   72.2130    3.6760 O.3    95  SER95      -0.2179
     90  N         44.1270   71.5620    6.9010 N.am   96  LYS96      -0.1963
     91  CA        42.8690   70.8690    7.2840 C.3    96  LYS96       0.1728
     92  C         41.7370   71.8450    7.3500 C.2    96  LYS96       0.2616
     93  O         41.9200   73.0250    7.7500 O.2    96  LYS96      -0.2715
     94  CB        42.9630   70.2110    8.6630 C.3    96  LYS96       0.0311
     95  CG        44.0910   69.2380    8.8670 C.3    96  LYS96       0.0038
     96  CD        43.7410   67.8130    8.7220 C.3    96  LYS96       0.0206
     97  CE        45.0170   66.9590    9.0090 C.3    96  LYS96       0.1093
     98  NZ        44.7480   65.7100    8.4370 N.3    96  LYS96      -0.1314
     99  N         40.5590   71.3980    6.9400 N.am   97  ILE97      -0.1964
    100  CA        39.3140   72.2010    7.1880 C.3    97  ILE97       0.1712
    101  C         38.8140   71.8960    8.6310 C.2    97  ILE97       0.2458
    102  O         39.1700   70.8910    9.2210 O.2    97  ILE97      -0.2730
    103  CB        38.2220   71.9170    6.1720 C.3    97  ILE97       0.0289
    104  CG1       37.7810   70.4470    6.2250 C.3    97  ILE97       0.0022
    105  CG2       38.7640   72.2670    4.7520 C.3    97  ILE97       0.0023
    106  CD1       36.6180   70.1730    7.2390 C.3    97  ILE97       0.0001
    107  N         38.0560   72.8340    9.2450 N.am   98  PRO98      -0.2727
    108  CA        37.7490   74.1710    8.7290 C.3    98  PRO98       0.1402
    109  C         38.8590   75.1870    8.9820 C.2    98  PRO98       0.2269
    110  O         39.6870   75.0300    9.9040 O.2    98  PRO98      -0.2865
    111  CB        36.5120   74.5520    9.5830 C.3    98  PRO98       0.0296
    112  CG        36.8140   73.8630   10.9580 C.3    98  PRO98       0.0237
    113  CD        37.4440   72.5460   10.5780 C.3    98  PRO98       0.0939
    114  N         41.8340   75.1830   13.1650 N.3   113  GLU113     -0.1231
    115  CA        41.3990   74.2310   14.2470 C.3   113  GLU113      0.1699
    116  C         39.9510   74.5540   14.5760 C.2   113  GLU113      0.2592
    117  O         39.6230   75.6780   14.9610 O.2   113  GLU113     -0.2718
    118  CB        42.2970   74.2360   15.4640 C.3   113  GLU113      0.0402
    119  CG        43.7340   73.6350   15.2210 C.3   113  GLU113      0.1161
    120  CD        43.6790   72.1720   14.8990 C.2   113  GLU113      0.3649
    121  OE1       42.8810   71.4530   15.5920 O.co2 113  GLU113     -0.2457
    122  OE2       44.4580   71.6910   14.0190 O.co2 113  GLU113     -0.2457
    123  N         39.0860   73.5950   14.4330 N.am  114  SER114     -0.1952
    124  CA        37.6410   73.8050   14.6850 C.3   114  SER114      0.1924
    125  C         37.4520   74.3210   16.1080 C.2   114  SER114      0.2314
    126  O         36.6400   75.2350   16.3220 O.2   114  SER114     -0.2863
    127  CB        36.8480   72.5400   14.3940 C.3   114  SER114      0.2116
    128  OG        37.2730   71.4950   15.2170 O.3   114  SER114     -0.2180
    129  N         38.3700   68.0050   21.4700 N.3   147  GLN147     -0.1245
    130  CA        39.4360   68.2230   20.5250 C.3   147  GLN147      0.1566
    131  C         40.5220   67.1350   20.6390 C.2   147  GLN147      0.2260
    132  O         41.2070   66.8090   19.6340 O.2   147  GLN147     -0.2867
    133  CB        40.0250   69.6240   20.6960 C.3   147  GLN147      0.0367
    134  CG        38.9740   70.7300   20.4130 C.3   147  GLN147      0.0905
    135  CD        38.4330   70.6550   18.9520 C.2   147  GLN147      0.2608
    136  OE1       37.1830   70.5750   18.7010 O.2   147  GLN147     -0.2717
    137  NE2       39.3480   70.6700   17.9640 N.am  147  GLN147     -0.0878
    138  N         40.2600   62.8150   17.5640 N.3   151  PRO151     -0.2116
    139  CA        41.3010   62.0830   16.8420 C.3   151  PRO151      0.1372
    140  C         41.2240   60.5730   17.0140 C.2   151  PRO151      0.2244
    141  O         41.5090   59.8260   16.0500 O.2   151  PRO151     -0.2868
    142  CB        42.5850   62.6360   17.4490 C.3   151  PRO151      0.0268
    143  CG        42.2250   64.0320   17.8420 C.3   151  PRO151      0.0207
    144  CD        40.8260   63.9200   18.3660 C.3   151  PRO151      0.0892
    145  N         30.3460   64.8370   16.2520 N.3   211  TRP211     -0.1241
    146  CA        31.0940   63.5870   16.3980 C.3   211  TRP211      0.1605
    147  C         30.3080   62.5520   17.1730 C.2   211  TRP211      0.2264
    148  O         29.7600   61.6160   16.5670 O.2   211  TRP211     -0.2867
    149  CB        32.4310   63.8790   17.0780 C.3   211  TRP211      0.0550
    150  CG        33.5000   64.3610   16.1140 C.ar  211  TRP211      0.0003
    151  CD1       34.0760   65.6140   16.0380 C.ar  211  TRP211      0.0946
    152  CD2       34.1530   63.5640   15.1250 C.ar  211  TRP211      0.0152
    153  NE1       35.0550   65.6260   15.0550 N.ar  211  TRP211     -0.2442
    154  CE2       35.0970   64.3940   14.4560 C.ar  211  TRP211      0.0810
    155  CE3       33.9970   62.2450   14.7060 C.ar  211  TRP211      0.0012
    156  CZ2       35.9330   63.9080   13.4290 C.ar  211  TRP211      0.0191
    157  CZ3       34.8410   61.7490   13.6740 C.ar  211  TRP211      0.0001
    158  CH2       35.7900   62.5830   13.0780 C.ar  211  TRP211      0.0015
@<TRIPOS>BOND
     1    68    67    2
     2    67    66    1
     3     7     5    1
     4     1     2    1
     5    69    66    1
     6    69    70    1
     7    66    65    1
     8    72    70   ar
     9    72    74   ar
    10     2     5    1
    11     2     3    1
    12    65    58   am
    13    51    50    2
    14    50    49    1
    15    56    57    1
    16    70    71   ar
    17     5     6    1
    18    48    49    1
    19    63    62    2
    20    74    75   ar
    21    49    52    1
    22     3     4    2
    23     3     9   am
    24     6     8    1
    25    58    57    1
    26    58    59    2
    27    57    60    1
    28    12    11    2
    29    62    64   am
    30    62    61    1
    31    71    73   ar
    32     9    10    1
    33    75    73   ar
    34    11    10    1
    35    61    60    1
    36    52    53    1
    37    52    54    1
    38    10    13    1
    39    53    55    1
    40    13    14    1
    41    89    88    1
    42    14    15    2
    43    14    16   am
    44    88    85    1
    45   105   103    1
    46    87    86    2
    47    85    86    1
    48    85    84    1
    49    86    90   am
    50   103   104    1
    51   103   100    1
    52   104   106    1
    53    23    21    1
    54    84    78   am
    55    90    91    1
    56    99   100    1
    57    99    92   am
    58    17    18    1
    59   100   101    1
    60    91    92    1
    61    91    94    1
    62    92    93    2
    63    78    79    2
    64    78    77    1
    65    21    18    1
    66    21    22    1
    67    18    19    1
    68    76    77    1
    69    98    97    1
    70    77    80    1
    71   101   102    2
    72   101   107   am
    73    94    95    1
    74    96    95    1
    75    96    97    1
    76   108   109    1
    77   108   107    1
    78   108   111    1
    79   109   110    2
    80   107   113    1
    81    19    20    2
    82    19    24   am
    83   111   112    1
    84    80    81    1
    85    30    24    1
    86    30    29    1
    87    24    25    1
    88    82    81    2
    89    81    83   am
    90   113   112    1
    91    33    32    1
    92    33    34    2
    93    29    28    1
    94    31    32    1
    95    31    26   am
    96    25    26    1
    97    25    28    1
    98    35    32    1
    99    35    36    1
   100    26    27    2
   101    38    36   am
   102    36    37    2
   103   158   156   ar
   104   158   157   ar
   105   114   115    1
   106    39    40    1
   107   156   154   ar
   108   157   155   ar
   109   122   120   ar
   110    41    40    1
   111    41    42    2
   112   115   116    1
   113   115   118    1
   114   127   124    1
   115   127   128    1
   116   123   116   am
   117   123   124    1
   118   154   153   ar
   119   154   152   ar
   120    40    43    1
   121   116   117    2
   122   124   125    1
   123   155   152   ar
   124   120   119    1
   125   120   121   ar
   126   153   151   ar
   127   152   150   ar
   128    43    44    1
   129   119   118    1
   130    44    45    1
   131    45    46    1
   132   151   150   ar
   133   141   140    2
   134   125   126    2
   135   150   149    1
   136   145   146    1
   137    46    47    1
   138   146   149    1
   139   146   147    1
   140   148   147    2
   141   139   140    1
   142   139   142    1
   143   139   138    1
   144   142   143    1
   145   138   144    1
   146   143   144    1
   147   137   135   am
   148   136   135    2
   149   135   134    1
   150   132   131    2
   151   134   133    1
   152   130   131    1
   153   130   133    1
   154   130   129    1
