@<TRIPOS>MOLECULE
tmp/3c8eA01.pdb
 152 147 0 0 0
SMALL
GASTEIGER

@<TRIPOS>ATOM
      1  N         42.5600   57.4890    1.0330 N.3    18  PHE18      -0.1241
      2  CA        43.2190   58.7900    1.1090 C.3    18  PHE18       0.1605
      3  C         44.6610   58.7820    0.5870 C.2    18  PHE18       0.2264
      4  O         45.4100   59.7280    0.8160 O.2    18  PHE18      -0.2867
      5  CB        43.0970   59.3430    2.5540 C.3    18  PHE18       0.0534
      6  CG        41.6620   59.5520    2.9930 C.ar   18  PHE18      -0.0203
      7  CD1       40.8620   60.5020    2.3510 C.ar   18  PHE18      -0.0042
      8  CD2       41.1080   58.7870    4.0340 C.ar   18  PHE18      -0.0042
      9  CE1       39.5170   60.7160    2.7390 C.ar   18  PHE18      -0.0003
     10  CE2       39.7710   58.9770    4.4230 C.ar   18  PHE18      -0.0003
     11  CZ        38.9850   59.9630    3.7630 C.ar   18  PHE18      -0.0000
     12  N         45.9400   61.8650   -1.1200 N.3    21  ILE21      -0.1231
     13  CA        46.1640   63.1110   -0.3840 C.3    21  ILE21       0.1692
     14  C         47.1640   63.0240    0.7790 C.2    21  ILE21       0.2592
     15  O         47.8360   64.0340    1.0940 O.2    21  ILE21      -0.2718
     16  CB        44.8350   63.8080    0.0690 C.3    21  ILE21       0.0266
     17  CG1       44.0200   62.8740    0.9440 C.3    21  ILE21       0.0019
     18  CG2       44.0500   64.2710   -1.1210 C.3    21  ILE21       0.0020
     19  CD1       42.9070   63.6210    1.7520 C.3    21  ILE21       0.0001
     20  N         47.2820   61.8550    1.4050 N.am   22  ASN22      -0.1974
     21  CA        48.1420   61.7620    2.5720 C.3    22  ASN22       0.1688
     22  C         49.5900   61.7540    2.1330 C.2    22  ASN22       0.2292
     23  O         49.9640   61.0250    1.1910 O.2    22  ASN22      -0.2864
     24  CB        47.8510   60.5030    3.3620 C.3    22  ASN22       0.1181
     25  CG        46.4840   60.5400    4.0770 C.2    22  ASN22       0.2629
     26  OD1       45.8270   61.5740    4.1660 O.2    22  ASN22      -0.2716
     27  ND2       46.0840   59.3910    4.6150 N.am   22  ASN22      -0.0877
     28  N         32.0690   67.9170    7.0430 N.3    48  THR48      -0.1204
     29  CA        32.3790   66.7740    7.8800 C.3    48  THR48       0.1979
     30  C         32.0720   67.1530    9.3400 C.2    48  THR48       0.2460
     31  O         31.5880   68.2200    9.6090 O.2    48  THR48      -0.2732
     32  CB        33.8780   66.5580    7.8490 C.3    48  THR48       0.1783
     33  OG1       34.4660   67.6830    8.5040 O.3    48  THR48      -0.2211
     34  CG2       34.4050   66.4420    6.4130 C.3    48  THR48       0.0376
     35  N         32.2850   66.2580   10.3380 N.am   49  PRO49      -0.2717
     36  CA        31.9270   66.6730   11.7170 C.3    49  PRO49       0.1535
     37  C         32.6610   67.9410   12.1090 C.2    49  PRO49       0.2598
     38  O         32.1030   68.7780   12.8230 O.2    49  PRO49      -0.2715
     39  CB        32.3910   65.5040   12.5410 C.3    49  PRO49       0.0310
     40  CG        32.1540   64.3270   11.6120 C.3    49  PRO49       0.0237
     41  CD        32.6450   64.8160   10.2640 C.3    49  PRO49       0.0939
     42  N         33.8850   68.1470   11.6160 N.am   50  ASN50      -0.1973
     43  CA        34.6120   69.3620   12.0380 C.3    50  ASN50       0.1688
     44  C         34.1370   70.6510   11.4060 C.2    50  ASN50       0.2292
     45  O         34.0630   71.6820   12.0690 O.2    50  ASN50      -0.2864
     46  CB        36.0840   69.1820   11.8370 C.3    50  ASN50       0.1181
     47  CG        36.6180   68.0990   12.7320 C.2    50  ASN50       0.2629
     48  OD1       36.2640   68.0310   13.9550 O.2    50  ASN50      -0.2716
     49  ND2       37.5080   67.2570   12.1810 N.am   50  ASN50      -0.0877
     50  N         30.7280   71.7380   13.1960 N.3    53  LYS53      -0.1245
     51  CA        30.7710   72.4620   14.4660 C.3    53  LYS53       0.1561
     52  C         30.6670   73.9680   14.2170 C.2    53  LYS53       0.2260
     53  O         29.9930   74.6910   14.9740 O.2    53  LYS53      -0.2867
     54  CB        32.1070   72.2630   15.1520 C.3    53  LYS53       0.0271
     55  CG        32.4400   70.8470   15.4510 C.3    53  LYS53       0.0035
     56  CD        33.8900   70.7810   15.9470 C.3    53  LYS53       0.0206
     57  CE        34.3900   69.3380   16.2530 C.3    53  LYS53       0.1093
     58  NZ        35.9130   69.3880   16.4990 N.3    53  LYS53      -0.1314
     59  N         38.3230   68.0240    0.2430 N.3    78  ILE78      -0.1245
     60  CA        39.5650   67.5000    0.7330 C.3    78  ILE78       0.1561
     61  C         39.9710   66.2670   -0.0900 C.2    78  ILE78       0.2260
     62  O         41.1590   65.9670   -0.2080 O.2    78  ILE78      -0.2867
     63  CB        39.5290   67.2350    2.3020 C.3    78  ILE78       0.0252
     64  CG1       38.5500   66.1050    2.6650 C.3    78  ILE78       0.0019
     65  CG2       39.3130   68.5580    3.0550 C.3    78  ILE78       0.0019
     66  CD1       38.6560   65.5970    4.1460 C.3    78  ILE78       0.0001
     67  N         44.1270   71.5620    6.9010 N.3    96  LYS96      -0.1245
     68  CA        42.8690   70.8690    7.2840 C.3    96  LYS96       0.1561
     69  C         41.7370   71.8450    7.3500 C.2    96  LYS96       0.2260
     70  O         41.9200   73.0250    7.7500 O.2    96  LYS96      -0.2867
     71  CB        42.9630   70.2110    8.6630 C.3    96  LYS96       0.0271
     72  CG        44.0910   69.2380    8.8670 C.3    96  LYS96       0.0035
     73  CD        43.7410   67.8130    8.7220 C.3    96  LYS96       0.0206
     74  CE        45.0170   66.9590    9.0090 C.3    96  LYS96       0.1093
     75  NZ        44.7480   65.7100    8.4370 N.3    96  LYS96      -0.1314
     76  N         38.3700   68.0050   21.4700 N.3   147  GLN147     -0.1245
     77  CA        39.4360   68.2230   20.5250 C.3   147  GLN147      0.1566
     78  C         40.5220   67.1350   20.6390 C.2   147  GLN147      0.2260
     79  O         41.2070   66.8090   19.6340 O.2   147  GLN147     -0.2867
     80  CB        40.0250   69.6240   20.6960 C.3   147  GLN147      0.0367
     81  CG        38.9740   70.7300   20.4130 C.3   147  GLN147      0.0905
     82  CD        38.4330   70.6550   18.9520 C.2   147  GLN147      0.2608
     83  OE1       37.1830   70.5750   18.7010 O.2   147  GLN147     -0.2717
     84  NE2       39.3480   70.6700   17.9640 N.am  147  GLN147     -0.0878
     85  N         38.2780   63.4060   19.5180 N.3   150  ALA150     -0.1231
     86  CA        37.8740   63.1540   18.1140 C.3   150  ALA150      0.1679
     87  C         38.9680   62.4850   17.3060 C.2   150  ALA150      0.2434
     88  O         38.6580   61.7010   16.4000 O.2   150  ALA150     -0.2733
     89  CB        37.4170   64.4280   17.4480 C.3   150  ALA150      0.0304
     90  N         40.2600   62.8150   17.5640 N.am  151  PRO151     -0.2729
     91  CA        41.3010   62.0830   16.8420 C.3   151  PRO151      0.1401
     92  C         41.2240   60.5730   17.0140 C.2   151  PRO151      0.2269
     93  O         41.5090   59.8260   16.0500 O.2   151  PRO151     -0.2865
     94  CB        42.5850   62.6360   17.4490 C.3   151  PRO151      0.0296
     95  CG        42.2250   64.0320   17.8420 C.3   151  PRO151      0.0237
     96  CD        40.8260   63.9200   18.3660 C.3   151  PRO151      0.0939
     97  N         37.9370   59.4500   14.9930 N.3   154  GLY154     -0.1210
     98  CA        38.0440   59.5050   13.5570 C.3   154  GLY154      0.1956
     99  C         39.3200   58.8730   13.0070 C.2   154  GLY154      0.2612
    100  O         39.2940   58.0590   12.0700 O.2   154  GLY154     -0.2717
    101  N         40.4700   59.2840   13.5410 N.am  155  GLY155     -0.1956
    102  CA        41.7230   58.8360   12.9760 C.3   155  GLY155      0.1869
    103  C         42.0960   57.4310   13.3950 C.2   155  GLY155      0.2309
    104  O         42.9810   56.7990   12.7890 O.2   155  GLY155     -0.2863
    105  N         39.0300   55.2680   10.9420 N.3   159  HIS159     -0.1241
    106  CA        39.9740   54.7850    9.9510 C.3   159  HIS159      0.1621
    107  C         39.9590   53.2660    9.9110 C.2   159  HIS159      0.2264
    108  O         39.8200   52.6580    8.8250 O.2   159  HIS159     -0.2867
    109  CB        41.3940   55.2180   10.2310 C.3   159  HIS159      0.0745
    110  CG        42.2630   54.7570    9.1150 C.ar  159  HIS159      0.0817
    111  ND1       42.2160   55.3620    7.8750 N.ar  159  HIS159     -0.2268
    112  CD2       42.9970   53.6310    8.9730 C.ar  159  HIS159      0.1154
    113  CE1       42.9720   54.6730    7.0320 C.ar  159  HIS159      0.1986
    114  NE2       43.4740   53.6280    7.6740 N.ar  159  HIS159     -0.2212
    115  N         37.4610   52.7700    6.8810 N.3   163  TYR163     -0.1241
    116  CA        38.2140   53.1060    5.6680 C.3   163  TYR163      0.1605
    117  C         39.3520   52.1600    5.2960 C.2   163  TYR163      0.2264
    118  O         39.7220   52.0530    4.1220 O.2   163  TYR163     -0.2867
    119  CB        38.7840   54.5180    5.8190 C.3   163  TYR163      0.0534
    120  CG        37.8090   55.6100    5.5190 C.ar  163  TYR163     -0.0201
    121  CD1       37.3790   56.4730    6.5240 C.ar  163  TYR163     -0.0009
    122  CD2       37.3410   55.8100    4.1970 C.ar  163  TYR163     -0.0009
    123  CE1       36.5220   57.5050    6.2530 C.ar  163  TYR163      0.0417
    124  CE2       36.4680   56.8490    3.9160 C.ar  163  TYR163      0.0417
    125  CZ        36.0890   57.6990    4.9650 C.ar  163  TYR163      0.1957
    126  OH        35.2070   58.7400    4.7370 O.3   163  TYR163     -0.2866
    127  N         30.3460   64.8370   16.2520 N.3   211  TRP211     -0.1241
    128  CA        31.0940   63.5870   16.3980 C.3   211  TRP211      0.1605
    129  C         30.3080   62.5520   17.1730 C.2   211  TRP211      0.2264
    130  O         29.7600   61.6160   16.5670 O.2   211  TRP211     -0.2867
    131  CB        32.4310   63.8790   17.0780 C.3   211  TRP211      0.0550
    132  CG        33.5000   64.3610   16.1140 C.ar  211  TRP211      0.0003
    133  CD1       34.0760   65.6140   16.0380 C.ar  211  TRP211      0.0946
    134  CD2       34.1530   63.5640   15.1250 C.ar  211  TRP211      0.0152
    135  NE1       35.0550   65.6260   15.0550 N.ar  211  TRP211     -0.2442
    136  CE2       35.0970   64.3940   14.4560 C.ar  211  TRP211      0.0810
    137  CE3       33.9970   62.2450   14.7060 C.ar  211  TRP211      0.0012
    138  CZ2       35.9330   63.9080   13.4290 C.ar  211  TRP211      0.0191
    139  CZ3       34.8410   61.7490   13.6740 C.ar  211  TRP211      0.0001
    140  CH2       35.7900   62.5830   13.0780 C.ar  211  TRP211      0.0015
    141  N         30.4050   56.7080    9.9450 N.3   221  TYR221     -0.1241
    142  CA        31.0700   55.4270    9.8440 C.3   221  TYR221      0.1605
    143  C         30.1760   54.2100    9.8190 C.2   221  TYR221      0.2264
    144  O         30.6770   53.1180    9.9680 O.2   221  TYR221     -0.2867
    145  CB        32.1480   55.2390   10.9220 C.3   221  TYR221      0.0534
    146  CG        33.1280   56.3970   10.9910 C.ar  221  TYR221     -0.0201
    147  CD1       33.7670   56.8500    9.8650 C.ar  221  TYR221     -0.0009
    148  CD2       33.4370   56.9810   12.2200 C.ar  221  TYR221     -0.0009
    149  CE1       34.6760   57.9260    9.9200 C.ar  221  TYR221      0.0417
    150  CE2       34.3240   58.0520   12.3010 C.ar  221  TYR221      0.0417
    151  CZ        34.9190   58.5330   11.1230 C.ar  221  TYR221      0.1957
    152  OH        35.8000   59.5920   11.1120 O.3   221  TYR221     -0.2866
@<TRIPOS>BOND
     1    18    16    1
     2    12    13    1
     3    13    16    1
     4    13    14    1
     5    62    61    2
     6    61    60    1
     7    16    17    1
     8    59    60    1
     9     3     4    2
    10     3     2    1
    11    60    63    1
    12    14    15    2
    13    14    20   am
    14    17    19    1
    15     1     2    1
    16     2     5    1
    17    23    22    2
    18    20    21    1
    19    22    21    1
    20    63    64    1
    21    63    65    1
    22     7     9   ar
    23     7     6   ar
    24     5     6    1
    25    21    24    1
    26    64    66    1
    27     9    11   ar
    28     6     8   ar
    29    24    25    1
    30    11    10   ar
    31   124   122   ar
    32   124   125   ar
    33     8    10   ar
    34    25    26    2
    35    25    27   am
    36   118   117    2
    37   122   120   ar
    38   126   125    1
    39   125   123   ar
    40   117   116    1
    41   120   119    1
    42   120   121   ar
    43   116   119    1
    44   116   115    1
    45   123   121   ar
    46    34    32    1
    47    67    68    1
    48   113   114   ar
    49   113   111   ar
    50    28    29    1
    51    68    69    1
    52    68    71    1
    53    69    70    2
    54   114   112   ar
    55    32    29    1
    56    32    33    1
    57   111   110   ar
    58    29    30    1
    59    75    74    1
    60    71    72    1
    61    73    72    1
    62    73    74    1
    63   108   107    2
    64   112   110   ar
    65   110   109    1
    66    30    31    2
    67    30    35   am
    68   143   142    1
    69   143   144    2
    70   142   141    1
    71   142   145    1
    72   147   149   ar
    73   147   146   ar
    74   107   106    1
    75   149   151   ar
    76   106   109    1
    77   106   105    1
    78    41    35    1
    79    41    40    1
    80    35    36    1
    81   145   146    1
    82   146   148   ar
    83   152   151    1
    84   151   150   ar
    85    44    43    1
    86    44    45    2
    87    40    39    1
    88    42    43    1
    89    42    37   am
    90    36    37    1
    91    36    39    1
    92    46    43    1
    93    46    47    1
    94   100    99    2
    95    37    38    2
    96    49    47   am
    97   148   150   ar
    98    47    48    2
    99   104   103    2
   100   102   103    1
   101   102   101    1
   102    99   101   am
   103    99    98    1
   104   140   138   ar
   105   140   139   ar
   106    50    51    1
   107   138   136   ar
   108    98    97    1
   109   139   137   ar
   110    52    51    1
   111    52    53    2
   112   136   135   ar
   113   136   134   ar
   114    51    54    1
   115   137   134   ar
   116   135   133   ar
   117   134   132   ar
   118    54    55    1
   119    55    56    1
   120    56    57    1
   121   133   132   ar
   122    93    92    2
   123   132   131    1
   124   127   128    1
   125    57    58    1
   126   128   131    1
   127   128   129    1
   128    88    87    2
   129   130   129    2
   130    91    92    1
   131    91    94    1
   132    91    90    1
   133    87    90   am
   134    87    86    1
   135    89    86    1
   136    94    95    1
   137    90    96    1
   138    95    96    1
   139    84    82   am
   140    86    85    1
   141    83    82    2
   142    82    81    1
   143    79    78    2
   144    81    80    1
   145    77    78    1
   146    77    80    1
   147    77    76    1
