@<TRIPOS>MOLECULE
tmp/3c8fA01.pdb
 105 97 0 0 0
SMALL
GASTEIGER

@<TRIPOS>ATOM
      1  N         35.8260   -1.9890   13.3710 N.3    14  THR14      -0.1203
      2  CA        34.6810   -1.7950   12.5020 C.3    14  THR14       0.1994
      3  C         34.0340   -3.1380   12.1790 C.2    14  THR14       0.2617
      4  O         34.6840   -4.0540   11.6710 O.2    14  THR14      -0.2717
      5  CB        35.0920   -1.0960   11.2060 C.3    14  THR14       0.1784
      6  OG1       35.8190    0.0980   11.5220 O.3    14  THR14      -0.2211
      7  CG2       33.8590   -0.7240   10.3910 C.3    14  THR14       0.0376
      8  N         32.7460   -3.2350   12.4830 N.am   15  VAL15      -0.1979
      9  CA        31.9470   -4.4390   12.2660 C.3    15  VAL15       0.1595
     10  C         32.3650   -5.3780   11.1250 C.2    15  VAL15       0.2287
     11  O         32.2140   -6.5990   11.2500 O.2    15  VAL15      -0.2864
     12  CB        30.4570   -4.0620   12.0600 C.3    15  VAL15       0.0276
     13  CG1       29.6330   -5.3020   11.7810 C.3    15  VAL15       0.0022
     14  CG2       29.9280   -3.3530   13.2970 C.3    15  VAL15       0.0022
     15  N         37.9570    1.9190   14.5850 N.3    21  ARG21      -0.1245
     16  CA        37.2980    3.2080   14.4950 C.3    21  ARG21       0.1563
     17  C         37.2900    3.8500   15.8520 C.2    21  ARG21       0.2260
     18  O         36.9470    3.2090   16.8440 O.2    21  ARG21      -0.2867
     19  CB        35.8610    3.1090   13.9620 C.3    21  ARG21       0.0307
     20  CG        35.8080    2.9530   12.4490 C.3    21  ARG21       0.0489
     21  CD        34.5390    3.5020   11.8630 C.3    21  ARG21       0.2205
     22  NE        34.6570    4.9080   11.4800 N.pl3  21  ARG21      -0.0865
     23  CZ        35.0750    5.3340   10.2900 C.cat  21  ARG21       0.5346
     24  NH1       35.1420    6.6350   10.0400 N.pl3  21  ARG21       0.1354
     25  NH2       35.4240    4.4730    9.3460 N.pl3  21  ARG21       0.1354
     26  N         35.4850    6.1940   18.1120 N.3    23  ILE23      -0.1245
     27  CA        34.1390    6.7450   18.1690 C.3    23  ILE23       0.1561
     28  C         33.9580    7.6710   19.3520 C.2    23  ILE23       0.2260
     29  O         34.2250    7.2880   20.4900 O.2    23  ILE23      -0.2867
     30  CB        33.0970    5.6220   18.2820 C.3    23  ILE23       0.0252
     31  CG1       33.4030    4.5370   17.2470 C.3    23  ILE23       0.0019
     32  CG2       31.6820    6.1960   18.1050 C.3    23  ILE23       0.0019
     33  CD1       32.5270    3.2910   17.3580 C.3    23  ILE23       0.0001
     34  N         41.0860   -0.3120    5.6580 N.3    69  SER69      -0.1202
     35  CA        39.7340   -0.0860    5.1450 C.3    69  SER69       0.2020
     36  C         38.7910    0.7240    6.0240 C.2    69  SER69       0.2619
     37  O         38.7850    1.9570    5.9720 O.2    69  SER69      -0.2717
     38  CB        39.0620   -1.4180    4.8030 C.3    69  SER69       0.2103
     39  OG        39.5640   -1.9420    3.5870 O.3    69  SER69      -0.2182
     40  N         37.9890    0.0250    6.8210 N.am   70  GLY70      -0.1956
     41  CA        37.0300    0.6890    7.6850 C.3    70  GLY70       0.1869
     42  C         37.5920    1.4790    8.8550 C.2    70  GLY70       0.2309
     43  O         36.8350    1.9180    9.7150 O.2    70  GLY70      -0.2863
     44  N         34.4720    8.3810   14.0550 N.3    74  THR74      -0.1218
     45  CA        33.0360    8.5020   13.9400 C.3    74  THR74       0.1862
     46  C         32.4620    9.4050   15.0030 C.2    74  THR74       0.2287
     47  O         32.8250    9.3170   16.1710 O.2    74  THR74      -0.2866
     48  CB        32.3660    7.1140   14.0020 C.3    74  THR74       0.1770
     49  OG1       32.7330    6.3740   12.8220 O.3    74  THR74      -0.2211
     50  CG2       30.8400    7.2430   14.0600 C.3    74  THR74       0.0375
     51  N         39.7390    8.8630    7.7990 N.3   100  HIS100     -0.1241
     52  CA        38.3960    8.7010    7.2490 C.3   100  HIS100      0.1621
     53  C         37.3920    9.1960    8.2890 C.2   100  HIS100      0.2264
     54  O         37.5460    8.9240    9.4740 O.2   100  HIS100     -0.2867
     55  CB        38.1680    7.2230    6.9350 C.3   100  HIS100      0.0745
     56  CG        36.8900    6.9400    6.2170 C.ar  100  HIS100      0.0817
     57  ND1       35.7280    6.5980    6.8750 N.ar  100  HIS100     -0.2268
     58  CD2       36.5930    6.9340    4.8950 C.ar  100  HIS100      0.1154
     59  CE1       34.7700    6.3890    5.9880 C.ar  100  HIS100      0.1986
     60  NE2       35.2700    6.5860    4.7800 N.ar  100  HIS100     -0.2212
     61  N         33.2510    9.6430    9.6160 N.3   102  CYS102     -0.1235
     62  CA        31.8590    9.2270    9.4990 C.3   102  CYS102      0.1677
     63  C         30.9700    9.9520   10.4950 C.2   102  CYS102      0.2270
     64  O         31.2550   10.0010   11.6880 O.2   102  CYS102     -0.2867
     65  CB        31.7120    7.7130    9.6910 C.3   102  CYS102      0.0956
     66  SG        29.9720    7.1090    9.8480 S.3   102  CYS102     -0.0801
     67  N         31.5770    9.8470    5.2280 N.3   125  LEU125     -0.1245
     68  CA        30.4040    8.9770    5.2540 C.3   125  LEU125      0.1561
     69  C         29.3480    9.4010    6.2710 C.2   125  LEU125      0.2260
     70  O         29.6690    9.6890    7.4170 O.2   125  LEU125     -0.2867
     71  CB        30.8350    7.5320    5.5400 C.3   125  LEU125      0.0270
     72  CG        29.7460    6.4680    5.7520 C.3   125  LEU125      0.0019
     73  CD1       28.9660    6.2400    4.4700 C.3   125  LEU125      0.0001
     74  CD2       30.4040    5.1770    6.2260 C.3   125  LEU125      0.0001
     75  N         26.1090    8.1580    8.3120 N.3   127  MET127     -0.1245
     76  CA        25.3210    7.0030    8.7410 C.3   127  MET127      0.1570
     77  C         24.0220    7.6040    9.2840 C.2   127  MET127      0.2261
     78  O         24.0160    8.2190   10.3450 O.2   127  MET127     -0.2867
     79  CB        26.0590    6.2360    9.8480 C.3   127  MET127      0.0387
     80  CG        25.3380    5.0090   10.3580 C.3   127  MET127      0.0595
     81  SD        26.2240    3.4740    9.9700 S.3   127  MET127     -0.1393
     82  CE        27.5250    3.4700   11.2690 C.3   127  MET127      0.0692
     83  N         27.7690   10.2400    0.3090 N.3   162  LYS162     -0.1245
     84  CA        27.6160    8.7950    0.4680 C.3   162  LYS162      0.1561
     85  C         26.8860    8.5620    1.7830 C.2   162  LYS162      0.2260
     86  O         27.2680    9.1110    2.8190 O.2   162  LYS162     -0.2867
     87  CB        28.9820    8.1060    0.4820 C.3   162  LYS162      0.0271
     88  CG        28.9440    6.6420    0.9040 C.3   162  LYS162      0.0035
     89  CD        30.2910    6.0630    0.5370 C.3   162  LYS162      0.0206
     90  CE        30.5150    4.8150    1.3180 C.3   162  LYS162      0.1093
     91  NZ        31.7410    4.1290    0.8350 N.3   162  LYS162     -0.1314
     92  N         24.8290    5.6270    4.4330 N.3   164  TRP164     -0.1241
     93  CA        24.4850    4.2830    4.8530 C.3   164  TRP164      0.1605
     94  C         23.2620    4.5580    5.7130 C.2   164  TRP164      0.2264
     95  O         23.1830    5.6010    6.3610 O.2   164  TRP164     -0.2867
     96  CB        25.5830    3.6590    5.7160 C.3   164  TRP164      0.0550
     97  CG        26.7560    3.1160    4.9410 C.ar  164  TRP164      0.0003
     98  CD1       27.0320    3.3190    3.6190 C.ar  164  TRP164      0.0946
     99  CD2       27.8390    2.3430    5.4620 C.ar  164  TRP164      0.0152
    100  NE1       28.2240    2.7270    3.2860 N.ar  164  TRP164     -0.2442
    101  CE2       28.7410    2.1170    4.3970 C.ar  164  TRP164      0.0810
    102  CE3       28.1350    1.8170    6.7260 C.ar  164  TRP164      0.0012
    103  CZ2       29.9300    1.3850    4.5550 C.ar  164  TRP164      0.0191
    104  CZ3       29.3240    1.0850    6.8890 C.ar  164  TRP164      0.0001
    105  CH2       30.2050    0.8790    5.8020 C.ar  164  TRP164      0.0015
@<TRIPOS>BOND
     1    83    84    1
     2    84    87    1
     3    84    85    1
     4    87    88    1
     5    89    88    1
     6    89    90    1
     7    91    90    1
     8    85    86    2
     9   100    98   ar
    10   100   101   ar
    11    39    38    1
    12    98    97   ar
    13   101   103   ar
    14   101    99   ar
    15    92    93    1
    16    73    72    1
    17   103   105   ar
    18    60    58   ar
    19    60    59   ar
    20    38    35    1
    21    93    94    1
    22    93    96    1
    23    58    56   ar
    24    97    99   ar
    25    97    96    1
    26    35    34    1
    27    35    36    1
    28    67    68    1
    29    68    71    1
    30    68    69    1
    31    99   102   ar
    32    71    72    1
    33    94    95    2
    34    72    74    1
    35   105   104   ar
    36    37    36    2
    37    59    57   ar
    38    36    40   am
    39    56    57   ar
    40    56    55    1
    41    69    70    2
    42   102   104   ar
    43    40    41    1
    44    55    52    1
    45    52    51    1
    46    52    53    1
    47    41    42    1
    48    53    54    2
    49    75    76    1
    50    76    77    1
    51    76    79    1
    52    42    43    2
    53    77    78    2
    54    25    23    1
    55    62    61    1
    56    62    65    1
    57    62    63    1
    58    65    66    1
    59    79    80    1
    60    81    80    1
    61    81    82    1
    62    24    23    1
    63    23    22    2
    64     7     5    1
    65    63    64    2
    66    10    11    2
    67    10     9    1
    68     5     6    1
    69     5     2    1
    70    22    21    1
    71     4     3    2
    72    13    12    1
    73    21    20    1
    74    12     9    1
    75    12    14    1
    76     3     8   am
    77     3     2    1
    78     9     8    1
    79    20    19    1
    80     2     1    1
    81    49    48    1
    82    45    48    1
    83    45    44    1
    84    45    46    1
    85    19    16    1
    86    48    50    1
    87    16    15    1
    88    16    17    1
    89    46    47    2
    90    17    18    2
    91    31    33    1
    92    31    30    1
    93    32    30    1
    94    26    27    1
    95    27    30    1
    96    27    28    1
    97    28    29    2
