@<TRIPOS>MOLECULE
tmp/3c8fA00.pdb
 113 106 0 0 0
SMALL
GASTEIGER

@<TRIPOS>ATOM
      1  N         31.1990    9.7440   21.4060 N.3    25  PHE25      -0.1241
      2  CA        29.7680    9.8910   21.6040 C.3    25  PHE25       0.1605
      3  C         29.5210   11.2700   22.1890 C.2    25  PHE25       0.2264
      4  O         29.8340   11.5340   23.3440 O.2    25  PHE25      -0.2867
      5  CB        29.2450    8.8100   22.5490 C.3    25  PHE25       0.0534
      6  CG        29.4260    7.4200   22.0250 C.ar   25  PHE25      -0.0203
      7  CD1       30.4760    6.6240   22.4740 C.ar   25  PHE25      -0.0042
      8  CD2       28.5660    6.9120   21.0610 C.ar   25  PHE25      -0.0042
      9  CE1       30.6710    5.3430   21.9740 C.ar   25  PHE25      -0.0003
     10  CE2       28.7560    5.6210   20.5500 C.ar   25  PHE25      -0.0003
     11  CZ        29.8130    4.8390   21.0120 C.ar   25  PHE25      -0.0000
     12  N         13.0640    3.1290   22.8470 N.3    35  TYR35      -0.1241
     13  CA        14.0600    2.0680   22.9600 C.3    35  TYR35       0.1605
     14  C         15.4950    2.5460   23.1090 C.2    35  TYR35       0.2264
     15  O         16.4190    1.7370   23.0710 O.2    35  TYR35      -0.2867
     16  CB        13.9690    1.1210   21.7550 C.3    35  TYR35       0.0534
     17  CG        14.1370    1.7730   20.3860 C.ar   35  TYR35      -0.0201
     18  CD1       13.2720    1.4560   19.3390 C.ar   35  TYR35      -0.0009
     19  CD2       15.1770    2.6680   20.1240 C.ar   35  TYR35      -0.0009
     20  CE1       13.4380    2.0060   18.0780 C.ar   35  TYR35       0.0417
     21  CE2       15.3510    3.2230   18.8560 C.ar   35  TYR35       0.0417
     22  CZ        14.4770    2.8840   17.8390 C.ar   35  TYR35       0.1957
     23  OH        14.6420    3.4010   16.5700 O.3    35  TYR35      -0.2866
     24  N         19.1830    3.2840   23.5200 N.3    37  HIS37      -0.1241
     25  CA        20.2420    2.4690   24.1020 C.3    37  HIS37       0.1621
     26  C         20.8610    3.1410   25.3100 C.2    37  HIS37       0.2264
     27  O         21.1490    2.4760   26.3000 O.2    37  HIS37      -0.2867
     28  CB        21.3440    2.1930   23.0810 C.3    37  HIS37       0.0745
     29  CG        21.0700    1.0140   22.2040 C.ar   37  HIS37       0.0817
     30  ND1       20.4140   -0.1100   22.6580 N.ar   37  HIS37      -0.2268
     31  CD2       21.4070    0.7620   20.9170 C.ar   37  HIS37       0.1154
     32  CE1       20.3620   -1.0060   21.6880 C.ar   37  HIS37       0.1986
     33  NE2       20.9580   -0.5020   20.6220 N.ar   37  HIS37      -0.2212
     34  N         29.2850   10.1530   16.9050 N.3    76  SER76      -0.1202
     35  CA        28.0020    9.5720   17.2620 C.3    76  SER76       0.2020
     36  C         27.5980   10.2170   18.5720 C.2    76  SER76       0.2619
     37  O         27.8840   11.3840   18.8140 O.2    76  SER76      -0.2717
     38  CB        28.1620    8.0590   17.4760 C.3    76  SER76       0.2103
     39  OG        26.9110    7.4190   17.6860 O.3    76  SER76      -0.2182
     40  N         26.9340    9.4320   19.4110 N.am   77  GLY77      -0.1942
     41  CA        26.5330    9.8920   20.7240 C.3    77  GLY77       0.2014
     42  C         25.0420    9.8280   20.8920 C.2    77  GLY77       0.2639
     43  O         24.4440    8.7540   20.9370 O.2    77  GLY77      -0.2714
     44  N         24.4760   11.0150   21.0550 N.am   78  GLY78      -0.1954
     45  CA        23.0500   11.1820   21.1330 C.3    78  GLY78       0.1869
     46  C         22.9480   11.6870   19.7100 C.2    78  GLY78       0.2309
     47  O         22.9330   10.8760   18.7870 O.2    78  GLY78      -0.2863
     48  N         27.6090    9.8100   12.3250 N.3   104  ASP104     -0.1225
     49  CA        26.4710    8.9370   12.6560 C.3   104  ASP104      0.1805
     50  C         25.4180    9.8750   13.2360 C.2   104  ASP104      0.2598
     51  O         25.6440   10.4760   14.2790 O.2   104  ASP104     -0.2718
     52  CB        26.8690    7.8750   13.6850 C.3   104  ASP104      0.1424
     53  CG        25.8050    6.7820   13.8580 C.2   104  ASP104      0.3668
     54  OD1       26.0100    5.8780   14.6970 O.co2 104  ASP104     -0.2456
     55  OD2       24.7660    6.8080   13.1600 O.co2 104  ASP104     -0.2456
     56  N         24.2800   10.0080   12.5570 N.am  105  THR105     -0.1939
     57  CA        23.2520   10.9290   13.0080 C.3   105  THR105      0.2028
     58  C         21.7960   10.5160   12.7670 C.2   105  THR105      0.2642
     59  O         21.5000    9.6140   11.9790 O.2   105  THR105     -0.2714
     60  CB        23.4470   12.2930   12.3440 C.3   105  THR105      0.1808
     61  OG1       22.3640   13.1470   12.6960 O.3   105  THR105     -0.2208
     62  CG2       23.4720   12.1500   10.8340 C.3   105  THR105      0.0379
     63  N         20.8960   11.2110   13.4530 N.am  106  ASN106     -0.1971
     64  CA        19.4670   10.9810   13.3300 C.3   106  ASN106      0.1688
     65  C         18.9280   12.0220   12.3690 C.2   106  ASN106      0.2292
     66  O         17.7470   12.0020   12.0160 O.2   106  ASN106     -0.2864
     67  CB        18.7910   11.1280   14.6880 C.3   106  ASN106      0.1181
     68  CG        19.3990   10.2150   15.7280 C.2   106  ASN106      0.2629
     69  OD1       19.4260    8.9900   15.5610 O.2   106  ASN106     -0.2716
     70  ND2       19.9100   10.8040   16.8070 N.am  106  ASN106     -0.0877
     71  N         20.1660    7.3010   10.7110 N.3   129  ASP129     -0.1239
     72  CA        19.1560    6.4740   11.3670 C.3   129  ASP129      0.1674
     73  C         17.7690    6.9030   10.8940 C.2   129  ASP129      0.2266
     74  O         17.3680    8.0420   11.1200 O.2   129  ASP129     -0.2867
     75  CB        19.1940    6.6520   12.8870 C.3   129  ASP129      0.1410
     76  CG        20.3370    5.9140   13.5420 C.2   129  ASP129      0.3668
     77  OD1       21.4700    6.4500   13.5710 O.co2 129  ASP129     -0.2456
     78  OD2       20.0950    4.7880   14.0320 O.co2 129  ASP129     -0.2456
     79  N         14.2360    5.9830   11.6580 N.3   131  LYS131     -0.1245
     80  CA        13.4460    5.2540   12.6290 C.3   131  LYS131      0.1561
     81  C         12.0370    4.8270   12.2430 C.2   131  LYS131      0.2260
     82  O         11.5190    3.8650   12.8080 O.2   131  LYS131     -0.2867
     83  CB        13.4360    6.0610   13.9260 C.3   131  LYS131      0.0271
     84  CG        14.8560    6.4310   14.3640 C.3   131  LYS131      0.0035
     85  CD        14.8740    7.4680   15.4610 C.3   131  LYS131      0.0206
     86  CE        16.3010    7.7450   15.8970 C.3   131  LYS131      0.1093
     87  NZ        16.9300    6.5490   16.5240 N.3   131  LYS131     -0.1314
     88  N         20.5540    3.1760    8.7510 N.3   166  ARG166     -0.1245
     89  CA        20.3840    2.2650    9.8750 C.3   166  ARG166      0.1563
     90  C         18.8970    2.2830   10.2240 C.2   166  ARG166      0.2260
     91  O         18.3010    3.3530   10.3550 O.2   166  ARG166     -0.2867
     92  CB        21.2010    2.7340   11.0730 C.3   166  ARG166      0.0307
     93  CG        21.0150    1.8750   12.3100 C.3   166  ARG166      0.0489
     94  CD        21.7080    2.4990   13.5130 C.3   166  ARG166      0.2205
     95  NE        23.1570    2.5790   13.3480 N.pl3 166  ARG166     -0.0865
     96  CZ        23.8690    3.6810   13.5590 C.cat 166  ARG166      0.5346
     97  NH1       25.1840    3.6680   13.3930 N.pl3 166  ARG166      0.1354
     98  NH2       23.2640    4.7990   13.9270 N.pl3 166  ARG166      0.1354
     99  N         16.0690    0.4130   12.8980 N.3   168  VAL168     -0.1245
    100  CA        15.8380   -0.4680   14.0340 C.3   168  VAL168      0.1561
    101  C         14.4860   -1.1580   13.8820 C.2   168  VAL168      0.2260
    102  O         13.4500   -0.5000   13.8020 O.2   168  VAL168     -0.2867
    103  CB        15.8630    0.3190   15.3590 C.3   168  VAL168      0.0252
    104  CG1       15.4740   -0.5880   16.5170 C.3   168  VAL168      0.0019
    105  CG2       17.2580    0.8970   15.5890 C.3   168  VAL168      0.0019
    106  N         18.8950   -3.5350   12.3550 N.3   199  LEU199     -0.1245
    107  CA        19.1720   -3.8860   13.7370 C.3   199  LEU199      0.1561
    108  C         17.8960   -4.3300   14.4350 C.2   199  LEU199      0.2260
    109  O         16.9160   -3.5940   14.4830 O.2   199  LEU199     -0.2867
    110  CB        19.7810   -2.6830   14.4560 C.3   199  LEU199      0.0270
    111  CG        20.2800   -2.8600   15.8900 C.3   199  LEU199      0.0019
    112  CD1       21.2750   -1.7580   16.2100 C.3   199  LEU199      0.0001
    113  CD2       19.1120   -2.8360   16.8650 C.3   199  LEU199      0.0001
@<TRIPOS>BOND
     1    88    89    1
     2    89    90    1
     3    89    92    1
     4    90    91    2
     5    71    72    1
     6    62    60    1
     7    73    74    2
     8    73    72    1
     9    92    93    1
    10    72    75    1
    11    79    80    1
    12    59    58    2
    13    66    65    2
    14    81    80    1
    15    81    82    2
    16    93    94    1
    17    48    49    1
    18    60    61    1
    19    60    57    1
    20   106   107    1
    21    65    64    1
    22    56    57    1
    23    56    50   am
    24    80    83    1
    25    49    50    1
    26    49    52    1
    27    58    57    1
    28    58    63   am
    29    75    76    1
    30    99   100    1
    31    55    53   ar
    32    50    51    2
    33    64    63    1
    34    64    67    1
    35    95    94    1
    36    95    96    2
    37    97    96    1
    38    76    77   ar
    39    76    78   ar
    40    96    98    1
    41    52    53    1
    42   107   108    1
    43   107   110    1
    44   102   101    2
    45    53    54   ar
    46   101   100    1
    47    83    84    1
    48   100   103    1
    49    84    85    1
    50   108   109    2
    51   110   111    1
    52    67    68    1
    53   103   105    1
    54   103   104    1
    55    85    86    1
    56    69    68    2
    57    68    70   am
    58   111   112    1
    59   111   113    1
    60    86    87    1
    61    23    22    1
    62    34    35    1
    63    35    38    1
    64    35    36    1
    65    38    39    1
    66    22    20   ar
    67    22    21   ar
    68    20    18   ar
    69    36    37    2
    70    36    40   am
    71    47    46    2
    72    21    19   ar
    73    18    17   ar
    74    40    41    1
    75    46    45    1
    76    19    17   ar
    77    17    16    1
    78    10    11   ar
    79    10     8   ar
    80    33    31   ar
    81    33    32   ar
    82    41    42    1
    83    42    43    2
    84    42    44   am
    85    31    29   ar
    86    11     9   ar
    87    44    45    1
    88     8     6   ar
    89     1     2    1
    90     2     3    1
    91     2     5    1
    92    32    30   ar
    93    16    13    1
    94     9     7   ar
    95     6     7   ar
    96     6     5    1
    97     3     4    2
    98    29    30   ar
    99    29    28    1
   100    12    13    1
   101    13    14    1
   102    15    14    2
   103    28    25    1
   104    24    25    1
   105    25    26    1
   106    26    27    2
