@<TRIPOS>MOLECULE
tmp/3c8oA01.pdb
 80 76 0 0 0
SMALL
GASTEIGER

@<TRIPOS>ATOM
      1  N        -22.3170   19.3860    9.7050 N.3    13  GLU13      -0.1231
      2  CA       -22.1850   20.2840    8.5550 C.3    13  GLU13       0.1699
      3  C        -20.8560   21.0430    8.5180 C.2    13  GLU13       0.2592
      4  O        -20.5420   21.6900    7.5180 O.2    13  GLU13      -0.2718
      5  CB       -23.3560   21.2730    8.5060 C.3    13  GLU13       0.0402
      6  CG       -24.3470   21.2020    9.5470 C.3    13  GLU13       0.1161
      7  CD       -25.6570   21.2010    8.8290 C.2    13  GLU13       0.3649
      8  OE1      -26.6530   21.6830    9.3980 O.co2  13  GLU13      -0.2457
      9  OE2      -25.6840   20.6970    7.6860 O.co2  13  GLU13      -0.2457
     10  N        -20.0810   20.9650    9.5990 N.am   14  LEU14      -0.1966
     11  CA       -18.8300   21.7220    9.7040 C.3    14  LEU14       0.1728
     12  C        -17.5580   20.8730    9.6140 C.2    14  LEU14       0.2616
     13  O        -16.5020   21.3790    9.2300 O.2    14  LEU14      -0.2715
     14  CB       -18.8100   22.5510   10.9950 C.3    14  LEU14       0.0311
     15  CG       -19.7960   23.7190   11.1040 C.3    14  LEU14       0.0022
     16  CD1      -19.8620   24.2290   12.5340 C.3    14  LEU14       0.0001
     17  CD2      -19.4390   24.8470   10.1400 C.3    14  LEU14       0.0001
     18  N        -17.6570   19.5940    9.9630 N.am   15  VAL15      -0.1963
     19  CA       -16.4650   18.7490   10.1020 C.3    15  VAL15       0.1727
     20  C        -16.0300   18.0170    8.8280 C.2    15  VAL15       0.2616
     21  O        -16.8580   17.5990    8.0160 O.2    15  VAL15      -0.2715
     22  CB       -16.5920   17.7280   11.2750 C.3    15  VAL15       0.0290
     23  CG1      -16.7270   18.4550   12.6140 C.3    15  VAL15       0.0023
     24  CG2      -17.7560   16.7600   11.0530 C.3    15  VAL15       0.0023
     25  N        -14.7130   17.8990    8.6680 N.am   16  GLN16      -0.1977
     26  CA       -14.0980   16.9790    7.7170 C.3    16  GLN16       0.1601
     27  C        -13.1900   16.0620    8.5100 C.2    16  GLN16       0.2287
     28  O        -12.4550   16.5250    9.3790 O.2    16  GLN16      -0.2864
     29  CB       -13.2030   17.7070    6.7250 C.3    16  GLN16       0.0394
     30  CG       -13.8540   18.6420    5.7460 C.3    16  GLN16       0.0908
     31  CD       -12.8610   19.0610    4.6770 C.2    16  GLN16       0.2608
     32  OE1      -12.2820   18.2180    3.9910 O.2    16  GLN16      -0.2717
     33  NE2      -12.6460   20.3620    4.5420 N.am   16  GLN16      -0.0878
     34  N         -7.5750   19.7640    3.4030 N.3   136  THR136     -0.1218
     35  CA        -6.8460   21.0290    3.2850 C.3   136  THR136      0.1862
     36  C         -6.8720   21.7790    4.6180 C.2   136  THR136      0.2287
     37  O         -7.9390   22.1600    5.1150 O.2   136  THR136     -0.2866
     38  CB        -7.3990   21.9190    2.1410 C.3   136  THR136      0.1770
     39  OG1       -7.1950   21.2630    0.8860 O.3   136  THR136     -0.2211
     40  CG2       -6.6900   23.2770    2.1080 C.3   136  THR136      0.0375
     41  N         -6.1000   24.9910    6.6250 N.3   138  ARG138     -0.1245
     42  CA        -5.9560   26.4270    6.3920 C.3   138  ARG138      0.1563
     43  C         -5.6710   27.1670    7.6940 C.2   138  ARG138      0.2260
     44  O         -6.3780   26.9660    8.6800 O.2   138  ARG138     -0.2867
     45  CB        -7.2130   26.9970    5.7280 C.3   138  ARG138      0.0307
     46  CG        -7.5610   26.3370    4.4050 C.3   138  ARG138      0.0489
     47  CD        -8.7700   26.9770    3.7480 C.3   138  ARG138      0.2205
     48  NE        -9.2790   26.1570    2.6490 N.pl3 138  ARG138     -0.0865
     49  CZ        -8.8110   26.1820    1.4020 C.cat 138  ARG138      0.5346
     50  NH1       -9.3480   25.3920    0.4810 N.pl3 138  ARG138      0.1354
     51  NH2       -7.8070   26.9870    1.0680 N.pl3 138  ARG138      0.1354
     52  N         -8.2240   28.3730   10.6120 N.3   141  GLU141     -0.1245
     53  CA        -9.2870   27.3840   10.8010 C.3   141  GLU141      0.1567
     54  C         -8.9040   26.4610   11.9610 C.2   141  GLU141      0.2260
     55  O         -7.9280   26.7340   12.6650 O.2   141  GLU141     -0.2867
     56  CB        -9.5820   26.6290    9.4970 C.3   141  GLU141      0.0388
     57  CG       -10.1090   27.5540    8.3900 C.3   141  GLU141      0.1160
     58  CD       -10.7090   26.8260    7.2000 C.2   141  GLU141      0.3649
     59  OE1      -10.6850   25.5780    7.1630 O.co2 141  GLU141     -0.2457
     60  OE2      -11.2140   27.5170    6.2920 O.co2 141  GLU141     -0.2457
     61  N        -11.1480   18.4700   11.0100 N.3   152  VAL152     -0.1231
     62  CA       -11.0030   19.9150   10.8130 C.3   152  VAL152      0.1692
     63  C        -12.3570   20.6060   10.6540 C.2   152  VAL152      0.2593
     64  O        -13.3480   19.9780   10.2650 O.2   152  VAL152     -0.2718
     65  CB       -10.0830   20.2740    9.6120 C.3   152  VAL152      0.0266
     66  CG1       -8.6520   19.8120    9.8640 C.3   152  VAL152      0.0020
     67  CG2      -10.6250   19.7030    8.3100 C.3   152  VAL152      0.0020
     68  N        -12.3790   21.9000   10.9640 N.am  153  SER153     -0.1939
     69  CA       -13.5770   22.7290   10.8680 C.3   153  SER153      0.2040
     70  C        -13.1580   24.1720   10.5800 C.2   153  SER153      0.2485
     71  O        -12.1410   24.6320   11.1100 O.2   153  SER153     -0.2729
     72  CB       -14.3750   22.6560   12.1750 C.3   153  SER153      0.2129
     73  OG       -15.4880   23.5350   12.1610 O.3   153  SER153     -0.2179
     74  N        -13.9320   24.8940    9.7420 N.am  154  PRO154     -0.2726
     75  CA       -13.5860   26.2890    9.4580 C.3   154  PRO154      0.1402
     76  C        -13.8780   27.2120   10.6430 C.2   154  PRO154      0.2269
     77  O        -13.3130   28.3050   10.7350 O.2   154  PRO154     -0.2865
     78  CB       -14.4870   26.6380    8.2710 C.3   154  PRO154      0.0296
     79  CG       -15.6700   25.7510    8.4220 C.3   154  PRO154      0.0237
     80  CD       -15.1530   24.4730    9.0260 C.3   154  PRO154      0.0939
@<TRIPOS>BOND
     1    50    49    1
     2    39    38    1
     3    51    49    1
     4    49    48    2
     5    40    38    1
     6    38    35    1
     7    48    47    1
     8    35    34    1
     9    35    36    1
    10    47    46    1
    11    32    31    2
    12    46    45    1
    13    33    31   am
    14    36    37    2
    15    31    30    1
    16    45    42    1
    17    30    29    1
    18    60    58   ar
    19    42    41    1
    20    42    43    1
    21    29    26    1
    22    59    58   ar
    23    58    57    1
    24     4     3    2
    25     9     7   ar
    26    43    44    2
    27    26    27    1
    28    26    25    1
    29    21    20    2
    30    78    79    1
    31    78    75    1
    32    67    65    1
    33    57    56    1
    34    79    80    1
    35     5     2    1
    36     5     6    1
    37    27    28    2
    38     3     2    1
    39     3    10   am
    40     2     1    1
    41    25    20   am
    42    20    19    1
    43     7     8   ar
    44     7     6    1
    45    80    74    1
    46    13    12    2
    47    75    74    1
    48    75    76    1
    49    56    53    1
    50    10    11    1
    51    65    66    1
    52    65    62    1
    53    12    11    1
    54    12    18   am
    55    11    14    1
    56    74    70   am
    57    18    19    1
    58    19    22    1
    59    17    15    1
    60    64    63    2
    61    70    69    1
    62    70    71    2
    63    52    53    1
    64    76    77    2
    65    63    62    1
    66    63    68   am
    67    53    54    1
    68    62    61    1
    69    69    68    1
    70    69    72    1
    71    14    15    1
    72    24    22    1
    73    15    16    1
    74    22    23    1
    75    54    55    2
    76    73    72    1
