@<TRIPOS>MOLECULE
tmp/3c8oB01.pdb
 90 85 0 0 0
SMALL
GASTEIGER

@<TRIPOS>ATOM
      1  N         29.9390   50.6810   35.5850 N.3    14  GLU14      -0.1182
      2  CA        29.0610   50.5620   36.7500 C.3    14  GLU14       0.1915
      3  C         28.2260   49.2770   36.7460 C.2    14  GLU14       0.2634
      4  O         27.4990   49.0000   37.7030 O.2    14  GLU14      -0.2714
      5  CB        28.1480   51.7860   36.8540 C.2    14  GLU14       0.0085
      6  CG        28.5650   52.9410   37.7000 C.2    14  GLU14       0.0835
      7  CD        27.7170   54.2350   37.6780 C.2    14  GLU14       0.3877
      8  OE1       27.9820   55.1090   36.8390 O.co2  14  GLU14      -0.2406
      9  OE2       26.7980   54.3830   38.5060 O.co2  14  GLU14      -0.2406
     10  N         28.3400   48.4920   35.6760 N.am   15  LEU15      -0.1963
     11  CA        27.5510   47.2670   35.5310 C.3    15  LEU15       0.1728
     12  C         28.3810   45.9860   35.5950 C.2    15  LEU15       0.2616
     13  O         27.8830   44.9440   36.0200 O.2    15  LEU15      -0.2715
     14  CB        26.7500   47.2920   34.2240 C.3    15  LEU15       0.0311
     15  CG        25.5190   48.1990   34.1210 C.3    15  LEU15       0.0022
     16  CD1       25.0560   48.2820   32.6760 C.3    15  LEU15       0.0001
     17  CD2       24.3870   47.7130   35.0220 C.3    15  LEU15       0.0001
     18  N         29.6380   46.0640   35.1700 N.am   16  VAL16      -0.1963
     19  CA        30.4650   44.8650   35.0260 C.3    16  VAL16       0.1727
     20  C         31.2180   44.4690   36.2970 C.2    16  VAL16       0.2616
     21  O         31.6500   45.3240   37.0770 O.2    16  VAL16      -0.2715
     22  CB        31.4650   44.9730   33.8310 C.3    16  VAL16       0.0290
     23  CG1       30.7140   45.1130   32.5090 C.3    16  VAL16       0.0023
     24  CG2       32.4540   46.1290   34.0260 C.3    16  VAL16       0.0023
     25  N         31.3430   43.1610   36.5020 N.am   17  GLN17      -0.1977
     26  CA        32.3180   42.6160   37.4360 C.3    17  GLN17       0.1601
     27  C         33.1750   41.5970   36.7000 C.2    17  GLN17       0.2287
     28  O         32.6610   40.7840   35.9290 O.2    17  GLN17      -0.2864
     29  CB        31.6540   41.9830   38.6620 C.3    17  GLN17       0.0394
     30  CG        32.6750   41.4020   39.6510 C.3    17  GLN17       0.0908
     31  CD        32.1790   41.3230   41.0830 C.2    17  GLN17       0.2608
     32  OE1       32.9580   41.4930   42.0250 O.2    17  GLN17      -0.2717
     33  NE2       30.8880   41.0640   41.2580 N.am   17  GLN17      -0.0878
     34  N         33.0760   35.8890   41.8390 N.3   136  VAL136     -0.1231
     35  CA        31.8620   36.3450   41.1550 C.3   136  VAL136      0.1692
     36  C         30.6740   35.4180   41.4200 C.2   136  VAL136      0.2592
     37  O         30.8120   34.1950   41.4040 O.2   136  VAL136     -0.2718
     38  CB        32.0970   36.4990   39.6180 C.3   136  VAL136      0.0266
     39  CG1       30.7780   36.6630   38.8590 C.3   136  VAL136      0.0020
     40  CG2       33.0140   37.6800   39.3310 C.3   136  VAL136      0.0020
     41  N         29.5110   36.0160   41.6650 N.am  137  THR137     -0.1953
     42  CA        28.2640   35.2690   41.7840 C.3   137  THR137      0.1897
     43  C         27.5240   35.3030   40.4500 C.2   137  THR137      0.2313
     44  O         27.1730   36.3740   39.9430 O.2   137  THR137     -0.2863
     45  CB        27.3780   35.8100   42.9290 C.3   137  THR137      0.1794
     46  OG1       28.0720   35.6590   44.1720 O.3   137  THR137     -0.2208
     47  CG2       26.0490   35.0510   43.0070 C.3   137  THR137      0.0378
     48  N         24.3010   34.4930   38.3910 N.3   139  ARG139     -0.1245
     49  CA        22.8700   34.3450   38.6260 C.3   139  ARG139      0.1563
     50  C         22.1320   34.0590   37.3200 C.2   139  ARG139      0.2260
     51  O         22.3800   34.7230   36.3120 O.2   139  ARG139     -0.2867
     52  CB        22.3030   35.6010   39.2980 C.3   139  ARG139      0.0307
     53  CG        22.9580   35.9330   40.6340 C.3   139  ARG139      0.0489
     54  CD        22.2890   37.1140   41.3220 C.3   139  ARG139      0.2205
     55  NE        22.8970   37.3860   42.6250 N.pl3 139  ARG139     -0.0865
     56  CZ        22.5310   36.8070   43.7680 C.cat 139  ARG139      0.5346
     57  NH1       21.5500   35.9130   43.7890 N.pl3 139  ARG139      0.1354
     58  NH2       23.1510   37.1230   44.8990 N.pl3 139  ARG139      0.1354
     59  N         20.9510   36.6580   34.4390 N.3   142  GLU142     -0.1245
     60  CA        21.9390   37.7210   34.2600 C.3   142  GLU142      0.1567
     61  C         22.8500   37.3560   33.0840 C.2   142  GLU142      0.2260
     62  O         22.5650   36.3940   32.3630 O.2   142  GLU142     -0.2867
     63  CB        22.7030   38.0000   35.5630 C.3   142  GLU142      0.0388
     64  CG        21.7890   38.5180   36.6820 C.3   142  GLU142      0.1160
     65  CD        22.5320   39.1120   37.8720 C.2   142  GLU142      0.3649
     66  OE1       23.7780   39.0530   37.9150 O.co2 142  GLU142     -0.2457
     67  OE2       21.8520   39.6450   38.7760 O.co2 142  GLU142     -0.2457
     68  N         30.8070   39.6260   34.0540 N.3   153  VAL153     -0.1245
     69  CA        29.3830   39.4310   34.3140 C.3   153  VAL153      0.1561
     70  C         28.6800   40.7850   34.4740 C.2   153  VAL153      0.2260
     71  O         29.2700   41.7410   34.9800 O.2   153  VAL153     -0.2867
     72  CB        29.1600   38.5300   35.5630 C.3   153  VAL153      0.0252
     73  CG1       27.7190   38.5840   36.0460 C.3   153  VAL153      0.0019
     74  CG2       29.5440   37.0890   35.2530 C.3   153  VAL153      0.0019
     75  N         24.4350   42.3540   35.3370 N.3   155  PRO155     -0.2102
     76  CA        23.0360   42.0210   35.6200 C.3   155  PRO155      0.1504
     77  C         22.0960   42.3120   34.4450 C.2   155  PRO155      0.2575
     78  O         20.9620   41.8270   34.4290 O.2   155  PRO155     -0.2718
     79  CB        22.6940   42.9270   36.8080 C.3   155  PRO155      0.0282
     80  CG        23.6150   44.0850   36.6750 C.3   155  PRO155      0.0208
     81  CD        24.8860   43.5310   36.1080 C.3   155  PRO155      0.0893
     82  N         22.5740   43.0930   33.4790 N.am  156  GLN156     -0.1980
     83  CA        21.7950   43.4620   32.2970 C.3   156  GLN156      0.1601
     84  C         22.5480   43.1130   31.0210 C.2   156  GLN156      0.2287
     85  O         23.7820   43.0770   31.0110 O.2   156  GLN156     -0.2864
     86  CB        21.4940   44.9630   32.3000 C.3   156  GLN156      0.0394
     87  CG        20.6850   45.4530   33.4880 C.3   156  GLN156      0.0908
     88  CD        20.7760   46.9570   33.6720 C.2   156  GLN156      0.2608
     89  OE1       20.8040   47.7160   32.7020 O.2   156  GLN156     -0.2717
     90  NE2       20.8220   47.3940   34.9260 N.am  156  GLN156     -0.0878
@<TRIPOS>BOND
     1    85    84    2
     2    84    83    1
     3    83    86    1
     4    83    82    1
     5    86    87    1
     6    62    61    2
     7    23    22    1
     8    16    15    1
     9    89    88    2
    10    61    60    1
    11    82    77   am
    12    87    88    1
    13    88    90   am
    14    22    24    1
    15    22    19    1
    16    68    69    1
    17    15    14    1
    18    15    17    1
    19    14    11    1
    20    60    59    1
    21    60    63    1
    22    69    70    1
    23    69    72    1
    24    78    77    2
    25    77    76    1
    26    70    71    2
    27    19    18    1
    28    19    20    1
    29    18    12   am
    30    74    72    1
    31    75    76    1
    32    75    81    1
    33    11    12    1
    34    11    10    1
    35    72    73    1
    36    63    64    1
    37     1     2    1
    38    12    13    2
    39    76    79    1
    40    10     3   am
    41    28    27    2
    42    81    80    1
    43    20    25   am
    44    20    21    2
    45    51    50    2
    46    25    26    1
    47    80    79    1
    48    64    65    1
    49    27    26    1
    50     3     2    1
    51     3     4    2
    52     2     5    1
    53     8     7   ar
    54     5     6    2
    55    50    49    1
    56    26    29    1
    57     7     6    1
    58     7     9   ar
    59    65    66   ar
    60    65    67   ar
    61    48    49    1
    62    49    52    1
    63    29    30    1
    64    39    38    1
    65    52    53    1
    66    40    38    1
    67    38    35    1
    68    30    31    1
    69    44    43    2
    70    43    42    1
    71    53    54    1
    72    31    33   am
    73    31    32    2
    74    35    36    1
    75    35    34    1
    76    54    55    1
    77    37    36    2
    78    36    41   am
    79    41    42    1
    80    42    45    1
    81    55    56    2
    82    45    47    1
    83    45    46    1
    84    56    57    1
    85    56    58    1
