@<TRIPOS>MOLECULE
tmp/3c8oA05.pdb
 77 76 0 0 0
SMALL
GASTEIGER

@<TRIPOS>ATOM
      1  N         -7.6620    8.0960    7.9490 N.3    20  PRO20      -0.2102
      2  CA        -7.0500    7.4260    9.1010 C.3    20  PRO20       0.1504
      3  C         -5.6660    6.8480    8.7940 C.2    20  PRO20       0.2576
      4  O         -5.5510    5.6860    8.4010 O.2    20  PRO20      -0.2718
      5  CB        -8.0430    6.2970    9.4310 C.3    20  PRO20       0.0282
      6  CG        -9.2740    6.5880    8.6410 C.3    20  PRO20       0.0208
      7  CD        -8.8240    7.3480    7.4400 C.3    20  PRO20       0.0893
      8  N         -4.6270    7.6580    8.9770 N.am   21  MET21      -0.1966
      9  CA        -3.2500    7.2080    8.7500 C.3    21  MET21       0.1736
     10  C         -2.2850    7.6620    9.8480 C.2    21  MET21       0.2616
     11  O         -1.1140    7.2740    9.8530 O.2    21  MET21      -0.2715
     12  CB        -2.7470    7.6580    7.3700 C.3    21  MET21       0.0427
     13  CG        -2.6790    9.1680    7.1660 C.3    21  MET21       0.0599
     14  SD        -1.8420    9.6440    5.6330 S.3    21  MET21      -0.1393
     15  CE        -3.0200    9.0910    4.4030 C.3    21  MET21       0.0692
     16  N         -2.7860    8.4760   10.7740 N.am   22  PHE22      -0.1960
     17  CA        -1.9600    9.0610   11.8260 C.3    22  PHE22       0.1771
     18  C         -2.0380    8.2850   13.1370 C.2    22  PHE22       0.2620
     19  O         -3.0310    7.6090   13.4140 O.2    22  PHE22      -0.2715
     20  CB        -2.3380   10.5320   12.0430 C.3    22  PHE22       0.0574
     21  CG        -1.9770   11.4210   10.8880 C.ar   22  PHE22      -0.0200
     22  CD1       -2.8920   11.6670    9.8660 C.ar   22  PHE22      -0.0042
     23  CD2       -0.7140   12.0010   10.8120 C.ar   22  PHE22      -0.0042
     24  CE1       -2.5550   12.4840    8.7890 C.ar   22  PHE22      -0.0003
     25  CE2       -0.3680   12.8180    9.7410 C.ar   22  PHE22      -0.0003
     26  CZ        -1.2880   13.0590    8.7270 C.ar   22  PHE22      -0.0000
     27  N         -0.9720    8.3850   13.9290 N.am   23  SER23      -0.1936
     28  CA        -0.8880    7.7380   15.2350 C.3    23  SER23       0.2055
     29  C         -0.6130    8.7730   16.3250 C.2    23  SER23       0.2643
     30  O          0.0490    9.7820   16.0740 O.2    23  SER23      -0.2714
     31  CB         0.2200    6.6830   15.2340 C.3    23  SER23       0.2130
     32  OG        -0.0770    5.6290   14.3320 O.3    23  SER23      -0.2179
     33  N         -1.1310    8.5120   17.5240 N.am   24  ASN24      -0.1971
     34  CA        -0.8810    9.3430   18.7010 C.3    24  ASN24       0.1688
     35  C          0.4480    9.0000   19.3550 C.2    24  ASN24       0.2292
     36  O          0.7540    7.8240   19.5760 O.2    24  ASN24      -0.2864
     37  CB        -2.0090    9.1800   19.7260 C.3    24  ASN24       0.1181
     38  CG        -2.8330   10.4430   19.9090 C.2    24  ASN24       0.2629
     39  OD1       -2.3780   11.5490   19.6290 O.2    24  ASN24      -0.2716
     40  ND2       -4.0520   10.2800   20.4050 N.am   24  ASN24      -0.0877
     41  N          0.5680   13.9850   16.8700 N.3   109  GLN109     -0.1245
     42  CA         0.1820   12.9410   15.9270 C.3   109  GLN109      0.1566
     43  C          1.0830   12.9820   14.7000 C.2   109  GLN109      0.2260
     44  O          1.3970   14.0540   14.1810 O.2   109  GLN109     -0.2867
     45  CB        -1.2960   13.0440   15.5330 C.3   109  GLN109      0.0367
     46  CG        -2.2590   12.9010   16.7140 C.3   109  GLN109      0.0905
     47  CD        -3.4870   12.0500   16.4170 C.2   109  GLN109      0.2608
     48  OE1       -3.6110   11.4490   15.3470 O.2   109  GLN109     -0.2717
     49  NE2       -4.4020   11.9890   17.3800 N.am  109  GLN109     -0.0878
     50  N         -7.8490   13.0950   18.6190 N.3   146  ASP146     -0.1225
     51  CA        -7.8380   12.1730   19.7550 C.3   146  ASP146      0.1805
     52  C         -7.4550   10.7560   19.2980 C.2   146  ASP146      0.2598
     53  O         -6.9140   10.5820   18.2000 O.2   146  ASP146     -0.2718
     54  CB        -9.1800   12.1980   20.5130 C.3   146  ASP146      0.1424
     55  CG       -10.3380   11.6240   19.7070 C.2   146  ASP146      0.3668
     56  OD1      -10.1620   11.3080   18.5110 O.co2 146  ASP146     -0.2456
     57  OD2      -11.4400   11.4880   20.2830 O.co2 146  ASP146     -0.2456
     58  N         -7.7330    9.7560   20.1330 N.am  147  ASN147     -0.1960
     59  CA        -7.4520    8.3540   19.7950 C.3   147  ASN147      0.1819
     60  C         -8.3310    7.7830   18.6750 C.2   147  ASN147      0.2621
     61  O         -8.0670    6.6870   18.1740 O.2   147  ASN147     -0.2715
     62  CB        -7.5530    7.4630   21.0390 C.3   147  ASN147      0.1195
     63  CG        -6.3510    7.5950   21.9630 C.2   147  ASN147      0.2630
     64  OD1       -5.2420    7.9060   21.5290 O.2   147  ASN147     -0.2716
     65  ND2       -6.5700    7.3420   23.2480 N.am  147  ASN147     -0.0877
     66  N         -9.3640    8.5260   18.2840 N.am  148  ASN148     -0.1958
     67  CA       -10.2720    8.1040   17.2130 C.3   148  ASN148      0.1819
     68  C         -9.8570    8.5890   15.8280 C.2   148  ASN148      0.2621
     69  O        -10.0940    7.9080   14.8280 O.2   148  ASN148     -0.2715
     70  CB       -11.6970    8.5690   17.5110 C.3   148  ASN148      0.1195
     71  CG       -12.2560    7.9490   18.7690 C.2   148  ASN148      0.2630
     72  OD1      -12.3530    8.6040   19.8070 O.2   148  ASN148     -0.2716
     73  ND2      -12.6130    6.6790   18.6900 N.am  148  ASN148     -0.0877
     74  N         -9.2520    9.7720   15.7780 N.am  149  GLY149     -0.1954
     75  CA        -8.8180   10.3710   14.5210 C.3   149  GLY149      0.1869
     76  C         -8.5780   11.8640   14.6240 C.2   149  GLY149      0.2309
     77  O         -8.5100   12.4200   15.7230 O.2   149  GLY149     -0.2863
@<TRIPOS>BOND
     1    15    14    1
     2    14    13    1
     3    13    12    1
     4    12     9    1
     5     7     1    1
     6     7     6    1
     7     1     2    1
     8     4     3    2
     9     6     5    1
    10    26    24   ar
    11    26    25   ar
    12     9     8    1
    13     9    10    1
    14    24    22   ar
    15     3     8   am
    16     3     2    1
    17     2     5    1
    18    25    23   ar
    19    10    11    2
    20    10    16   am
    21    22    21   ar
    22    16    17    1
    23    23    21   ar
    24    21    20    1
    25    17    20    1
    26    17    18    1
    27    18    19    2
    28    18    27   am
    29    27    28    1
    30    44    43    2
    31    32    31    1
    32    75    76    1
    33    75    74    1
    34    76    77    2
    35    43    42    1
    36    69    68    2
    37    31    28    1
    38    28    29    1
    39    48    47    2
    40    45    42    1
    41    45    46    1
    42    74    68   am
    43    68    67    1
    44    42    41    1
    45    30    29    2
    46    29    33   am
    47    47    46    1
    48    47    49   am
    49    67    70    1
    50    67    66    1
    51    70    71    1
    52    33    34    1
    53    61    60    2
    54    53    52    2
    55    66    60   am
    56    56    55   ar
    57    50    51    1
    58    60    59    1
    59    73    71   am
    60    34    35    1
    61    34    37    1
    62    71    72    2
    63    52    51    1
    64    52    58   am
    65    35    36    2
    66    39    38    2
    67    55    57   ar
    68    55    54    1
    69    37    38    1
    70    51    54    1
    71    59    58    1
    72    59    62    1
    73    38    40   am
    74    62    63    1
    75    64    63    2
    76    63    65   am
