@<TRIPOS>MOLECULE
tmp/3c8oB02.pdb
 77 76 0 0 0
SMALL
GASTEIGER

@<TRIPOS>ATOM
      1  N         41.2150   36.1270   37.2070 N.3    21  PRO21      -0.2102
      2  CA        41.9390   35.5360   36.0750 C.3    21  PRO21       0.1504
      3  C         42.4970   34.1420   36.3860 C.2    21  PRO21       0.2576
      4  O         43.6280   34.0180   36.8600 O.2    21  PRO21      -0.2718
      5  CB        43.0820   36.5330   35.8180 C.3    21  PRO21       0.0282
      6  CG        42.7340   37.7630   36.5960 C.3    21  PRO21       0.0208
      7  CD        41.9220   37.2950   37.7570 C.3    21  PRO21       0.0893
      8  N         41.7050   33.1080   36.1160 N.am   22  MET22      -0.1966
      9  CA        42.1300   31.7240   36.3540 C.3    22  MET22       0.1736
     10  C         41.6840   30.7590   35.2530 C.2    22  MET22       0.2616
     11  O         42.1060   29.6030   35.2310 O.2    22  MET22      -0.2715
     12  CB        41.6540   31.2270   37.7300 C.3    22  MET22       0.0427
     13  CG        40.1410   31.0810   37.8830 C.3    22  MET22       0.0599
     14  SD        39.6290   30.3450   39.4530 S.3    22  MET22      -0.1393
     15  CE        40.1450   31.6070   40.6200 C.3    22  MET22       0.0692
     16  N         40.8350   31.2400   34.3480 N.am   23  PHE23      -0.1960
     17  CA        40.2680   30.4020   33.2920 C.3    23  PHE23       0.1771
     18  C         41.0670   30.4630   31.9950 C.2    23  PHE23       0.2620
     19  O         41.7940   31.4280   31.7520 O.2    23  PHE23      -0.2715
     20  CB        38.7970   30.7650   33.0480 C.3    23  PHE23       0.0574
     21  CG        37.8930   30.4030   34.1910 C.ar   23  PHE23      -0.0200
     22  CD1       37.6140   31.3260   35.1950 C.ar   23  PHE23      -0.0042
     23  CD2       37.3400   29.1280   34.2790 C.ar   23  PHE23      -0.0042
     24  CE1       36.7890   30.9900   36.2630 C.ar   23  PHE23      -0.0003
     25  CE2       36.5150   28.7800   35.3420 C.ar   23  PHE23      -0.0003
     26  CZ        36.2400   29.7130   36.3380 C.ar   23  PHE23      -0.0000
     27  N         40.9310   29.4190   31.1790 N.am   24  SER24      -0.1936
     28  CA        41.5830   29.3390   29.8730 C.3    24  SER24       0.2055
     29  C         40.5570   29.0560   28.7760 C.2    24  SER24       0.2643
     30  O         39.5570   28.3840   29.0220 O.2    24  SER24      -0.2714
     31  CB        42.6440   28.2340   29.8760 C.3    24  SER24       0.2130
     32  OG        43.7070   28.5390   30.7630 O.3    24  SER24      -0.2179
     33  N         40.8170   29.5810   27.5780 N.am   25  ASN25      -0.1971
     34  CA        40.0050   29.3140   26.3860 C.3    25  ASN25       0.1688
     35  C         40.3820   27.9920   25.7270 C.2    25  ASN25       0.2292
     36  O         41.5600   27.7410   25.4550 O.2    25  ASN25      -0.2864
     37  CB        40.1660   30.4460   25.3610 C.3    25  ASN25       0.1181
     38  CG        38.9080   31.2870   25.1950 C.2    25  ASN25       0.2629
     39  OD1       37.7990   30.8520   25.5060 O.2    25  ASN25      -0.2716
     40  ND2       39.0800   32.4960   24.6720 N.am   25  ASN25      -0.0877
     41  N         35.4110   27.9390   28.2270 N.3   110  GLN110     -0.1245
     42  CA        36.4240   28.3300   29.2030 C.3   110  GLN110      0.1566
     43  C         36.3910   27.3980   30.4120 C.2   110  GLN110      0.2260
     44  O         35.3230   27.0830   30.9340 O.2   110  GLN110     -0.2867
     45  CB        36.2690   29.7970   29.6270 C.3   110  GLN110      0.0367
     46  CG        36.4190   30.7900   28.4690 C.3   110  GLN110      0.0905
     47  CD        37.2890   31.9950   28.7990 C.2   110  GLN110      0.2608
     48  OE1       37.8320   32.1110   29.8980 O.2   110  GLN110     -0.2717
     49  NE2       37.4330   32.8960   27.8340 N.am  110  GLN110     -0.0878
     50  N         36.2050   36.3140   26.4940 N.3   147  ASP147     -0.1225
     51  CA        37.1350   36.2990   25.3660 C.3   147  ASP147      0.1805
     52  C         38.5470   35.9180   25.8380 C.2   147  ASP147      0.2598
     53  O         38.7180   35.3990   26.9460 O.2   147  ASP147     -0.2718
     54  CB        37.1180   37.6440   24.6100 C.3   147  ASP147      0.1424
     55  CG        37.6810   38.8040   25.4280 C.2   147  ASP147      0.3668
     56  OD1       38.0420   38.6080   26.6060 O.co2 147  ASP147     -0.2456
     57  OD2       37.7650   39.9270   24.8820 O.co2 147  ASP147     -0.2456
     58  N         39.5490   36.1780   24.9990 N.am  148  ASN148     -0.1960
     59  CA        40.9470   35.8980   25.3380 C.3   148  ASN148      0.1819
     60  C         41.5140   36.7770   26.4660 C.2   148  ASN148      0.2621
     61  O         42.5970   36.5000   26.9830 O.2   148  ASN148     -0.2715
     62  CB        41.8330   35.9990   24.0880 C.3   148  ASN148      0.1195
     63  CG        41.7100   34.7880   23.1720 C.2   148  ASN148      0.2630
     64  OD1       41.3930   33.6810   23.6120 O.2   148  ASN148     -0.2716
     65  ND2       41.9770   34.9950   21.8890 N.am  148  ASN148     -0.0877
     66  N         40.7820   37.8250   26.8440 N.am  149  ASN149     -0.1958
     67  CA        41.2020   38.7220   27.9280 C.3   149  ASN149      0.1819
     68  C         40.6910   38.3030   29.3050 C.2   149  ASN149      0.2621
     69  O         41.3480   38.5490   30.3190 O.2   149  ASN149     -0.2715
     70  CB        40.7670   40.1590   27.6380 C.3   149  ASN149      0.1195
     71  CG        41.3520   40.6940   26.3520 C.2   149  ASN149      0.2630
     72  OD1       40.6450   40.8640   25.3580 O.2   149  ASN149     -0.2716
     73  ND2       42.6530   40.9480   26.3570 N.am  149  ASN149     -0.0877
     74  N         39.5140   37.6820   29.3360 N.am  150  GLY150     -0.1954
     75  CA        38.9160   37.2350   30.5900 C.3   150  GLY150      0.1869
     76  C         37.4200   37.0030   30.5100 C.2   150  GLY150      0.2309
     77  O         36.8490   36.8990   29.4220 O.2   150  GLY150     -0.2863
@<TRIPOS>BOND
     1    65    63   am
     2    63    64    2
     3    63    62    1
     4    62    59    1
     5    54    51    1
     6    54    55    1
     7    40    38   am
     8    57    55   ar
     9    58    59    1
    10    58    52   am
    11    38    37    1
    12    38    39    2
    13    59    60    1
    14    72    71    2
    15    37    34    1
    16    51    52    1
    17    51    50    1
    18    55    56   ar
    19    36    35    2
    20    35    34    1
    21    52    53    2
    22    71    73   am
    23    71    70    1
    24    34    33    1
    25    60    66   am
    26    60    61    2
    27    66    67    1
    28    33    29   am
    29    70    67    1
    30    49    47   am
    31    67    68    1
    32    41    42    1
    33    46    47    1
    34    46    45    1
    35    29    30    2
    36    29    28    1
    37    47    48    2
    38    42    45    1
    39    42    43    1
    40    68    74   am
    41    68    69    2
    42    74    75    1
    43    77    76    2
    44    28    31    1
    45    28    27    1
    46    31    32    1
    47    43    44    2
    48    76    75    1
    49    27    18   am
    50    19    18    2
    51    18    17    1
    52    20    17    1
    53    20    21    1
    54    17    16    1
    55    21    23   ar
    56    21    22   ar
    57    23    25   ar
    58    16    10   am
    59    22    24   ar
    60    11    10    2
    61    10     9    1
    62    25    26   ar
    63     5     2    1
    64     5     6    1
    65     2     3    1
    66     2     1    1
    67     8     9    1
    68     8     3   am
    69    24    26   ar
    70     9    12    1
    71     3     4    2
    72     6     7    1
    73     1     7    1
    74    12    13    1
    75    13    14    1
    76    14    15    1
