@<TRIPOS>MOLECULE
tmp/3c8wD00.pdb
 94 92 0 0 0
SMALL
GASTEIGER

@<TRIPOS>ATOM
      1  N         19.7470   69.2990  132.7870 N.3     9  VAL9       -0.1245
      2  CA        21.1330   69.3280  132.2790 C.3     9  VAL9        0.1561
      3  C         22.2610   68.7850  133.1480 C.2     9  VAL9        0.2260
      4  O         23.2050   69.5060  133.4840 O.2     9  VAL9       -0.2867
      5  CB        21.5400   70.7610  131.8500 C.3     9  VAL9        0.0252
      6  CG1       21.1960   71.8050  132.9440 C.3     9  VAL9        0.0019
      7  CG2       23.0080   70.7780  131.4840 C.3     9  VAL9        0.0019
      8  N         26.4810   67.8220  130.7310 N.3    12  ASN12      -0.1225
      9  CA        27.2550   69.0130  130.4750 C.3    12  ASN12       0.1785
     10  C         28.4970   68.6000  129.7150 C.2    12  ASN12       0.2597
     11  O         29.6110   68.5560  130.2350 O.2    12  ASN12      -0.2718
     12  CB        27.5840   69.6610  131.8280 C.3    12  ASN12       0.1169
     13  CG        28.1400   71.0510  131.7090 C.2    12  ASN12       0.2627
     14  OD1       28.3090   71.5840  130.6180 O.2    12  ASN12      -0.2716
     15  ND2       28.4650   71.6430  132.8520 N.am   12  ASN12      -0.0877
     16  N         28.2630   68.3380  128.4460 N.am   13  GLU13      -0.1965
     17  CA        29.2450   67.7530  127.5500 C.3    13  GLU13       0.1733
     18  C         30.4920   68.5960  127.3870 C.2    13  GLU13       0.2616
     19  O         31.5650   68.0590  127.1470 O.2    13  GLU13      -0.2715
     20  CB        28.6110   67.5150  126.1630 C.3    13  GLU13       0.0429
     21  CG        27.3590   66.6070  126.1490 C.3    13  GLU13       0.1163
     22  CD        27.6680   65.1310  125.9200 C.2    13  GLU13       0.3649
     23  OE1       28.6150   64.8070  125.1640 O.co2  13  GLU13      -0.2457
     24  OE2       26.9160   64.2790  126.4620 O.co2  13  GLU13      -0.2457
     25  N         30.3770   69.9120  127.5200 N.am   14  PHE14      -0.1974
     26  CA        31.5480   70.7840  127.2850 C.3    14  PHE14       0.1639
     27  C         31.9740   71.5020  128.5480 C.2    14  PHE14       0.2290
     28  O         32.7220   72.4410  128.5040 O.2    14  PHE14      -0.2864
     29  CB        31.2650   71.7480  126.1400 C.3    14  PHE14       0.0560
     30  CG        31.1080   71.0440  124.8220 C.ar   14  PHE14      -0.0200
     31  CD1       32.2250   70.7540  124.0640 C.ar   14  PHE14      -0.0042
     32  CD2       29.8620   70.6030  124.3980 C.ar   14  PHE14      -0.0042
     33  CE1       32.0990   70.0690  122.8750 C.ar   14  PHE14      -0.0003
     34  CE2       29.7180   69.9070  123.1990 C.ar   14  PHE14      -0.0003
     35  CZ        30.8250   69.6600  122.4390 C.ar   14  PHE14      -0.0000
     36  N         27.8220   77.2510  133.5300 N.3    17  ALA17      -0.1231
     37  CA        26.3860   77.4460  133.5090 C.3    17  ALA17       0.1679
     38  C         25.8480   76.8550  132.2140 C.2    17  ALA17       0.2434
     39  O         25.7860   77.5300  131.1880 O.2    17  ALA17      -0.2733
     40  CB        26.0740   78.9230  133.6110 C.3    17  ALA17       0.0304
     41  N         25.4480   75.5990  132.2620 N.am   18  PRO18      -0.2718
     42  CA        25.0130   74.9040  131.0570 C.3    18  PRO18       0.1535
     43  C         23.6370   75.2280  130.5550 C.2    18  PRO18       0.2598
     44  O         22.7170   75.5710  131.2940 O.2    18  PRO18      -0.2715
     45  CB        25.0660   73.4280  131.4570 C.3    18  PRO18       0.0310
     46  CG        24.8330   73.4830  132.9580 C.3    18  PRO18       0.0237
     47  CD        25.3770   74.7660  133.4690 C.3    18  PRO18       0.0939
     48  N         23.5440   75.0650  129.2470 N.am   19  ARG19      -0.1978
     49  CA        22.3010   75.1170  128.5060 C.3    19  ARG19       0.1597
     50  C         21.6050   73.7400  128.5660 C.2    19  ARG19       0.2287
     51  O         22.2010   72.6850  128.3100 O.2    19  ARG19      -0.2864
     52  CB        22.6020   75.5560  127.0640 C.3    19  ARG19       0.0334
     53  CG        21.4700   75.3770  126.1070 C.3    19  ARG19       0.0492
     54  CD        21.9160   75.7250  124.6870 C.3    19  ARG19       0.2205
     55  NE        22.3030   77.1300  124.5470 N.pl3  19  ARG19      -0.0865
     56  CZ        23.0570   77.5970  123.5660 C.cat  19  ARG19       0.5346
     57  NH1       23.5500   76.7780  122.6610 N.pl3  19  ARG19       0.1354
     58  NH2       23.3550   78.8760  123.5160 N.pl3  19  ARG19       0.1354
     59  N         20.5430   70.4840  124.4610 N.3    22  ASN22      -0.1225
     60  CA        21.8120   70.2340  123.7640 C.3    22  ASN22       0.1785
     61  C         21.5750   70.0760  122.2750 C.2    22  ASN22       0.2598
     62  O         20.5330   69.6250  121.8470 O.2    22  ASN22      -0.2718
     63  CB        22.5020   68.9890  124.3380 C.3    22  ASN22       0.1169
     64  CG        22.9140   69.1700  125.8140 C.2    22  ASN22       0.2627
     65  OD1       23.1540   70.2890  126.2790 O.2    22  ASN22      -0.2716
     66  ND2       22.9600   68.0830  126.5370 N.am   22  ASN22      -0.0877
     67  N         22.5590   70.4450  121.4740 N.am   23  THR23      -0.1939
     68  CA        22.4020   70.2990  120.0320 C.3    23  THR23       0.2028
     69  C         23.3650   69.2860  119.4510 C.2    23  THR23       0.2642
     70  O         23.1280   68.7360  118.3990 O.2    23  THR23      -0.2714
     71  CB        22.5970   71.6360  119.3030 C.3    23  THR23       0.1808
     72  OG1       21.5620   72.5450  119.6800 O.3    23  THR23      -0.2208
     73  CG2       22.5760   71.4490  117.7710 C.3    23  THR23       0.0379
     74  N         24.4710   69.0440  120.1180 N.am   24  TYR24      -0.1973
     75  CA        25.4410   68.0840  119.6280 C.3    24  TYR24       0.1639
     76  C         26.2430   67.5810  120.8370 C.2    24  TYR24       0.2290
     77  O         26.4450   68.3100  121.8010 O.2    24  TYR24      -0.2864
     78  CB        26.3850   68.7090  118.5570 C.3    24  TYR24       0.0560
     79  CG        26.9280   70.0850  118.9140 C.ar   24  TYR24      -0.0198
     80  CD1       28.0540   70.2170  119.7330 C.ar   24  TYR24      -0.0009
     81  CD2       26.2930   71.2410  118.4630 C.ar   24  TYR24      -0.0009
     82  CE1       28.5500   71.4550  120.0990 C.ar   24  TYR24       0.0417
     83  CE2       26.7890   72.4910  118.8100 C.ar   24  TYR24       0.0417
     84  CZ        27.8980   72.6040  119.6420 C.ar   24  TYR24       0.1957
     85  OH        28.3640   73.8520  120.0330 O.3    24  TYR24      -0.2866
     86  N         30.5360   75.7700  115.6310 N.3   111  GLU111     -0.1245
     87  CA        30.7610   76.2590  117.0070 C.3   111  GLU111      0.1567
     88  C         31.9790   75.6740  117.6550 C.2   111  GLU111      0.2260
     89  O         32.5620   76.2790  118.5800 O.2   111  GLU111     -0.2867
     90  CB        29.4900   76.0490  117.8460 C.3   111  GLU111      0.0388
     91  CG        28.3080   76.7440  117.1860 C.3   111  GLU111      0.1160
     92  CD        26.9340   76.4940  117.8530 C.2   111  GLU111      0.3649
     93  OE1       26.8520   75.9660  118.9820 O.co2 111  GLU111     -0.2457
     94  OE2       25.9310   76.8780  117.2280 O.co2 111  GLU111     -0.2457
@<TRIPOS>BOND
     1    86    87    1
     2    87    88    1
     3    87    90    1
     4    91    90    1
     5    91    92    1
     6    94    92   ar
     7    88    89    2
     8    73    71    1
     9    92    93   ar
    10    70    69    2
    11    81    83   ar
    12    81    79   ar
    13    78    79    1
    14    78    75    1
    15    83    84   ar
    16    79    80   ar
    17    71    72    1
    18    71    68    1
    19    69    68    1
    20    69    74   am
    21    75    74    1
    22    75    76    1
    23    84    85    1
    24    84    82   ar
    25    80    82   ar
    26    68    67    1
    27    76    77    2
    28    67    61   am
    29    62    61    2
    30    61    60    1
    31    35    33   ar
    32    35    34   ar
    33    57    56    1
    34    33    31   ar
    35    34    32   ar
    36    58    56    1
    37    56    55    2
    38    60    63    1
    39    60    59    1
    40    31    30   ar
    41    63    64    1
    42    32    30   ar
    43    55    54    1
    44    54    53    1
    45    30    29    1
    46    23    22   ar
    47    64    65    2
    48    64    66   am
    49    22    21    1
    50    22    24   ar
    51    53    52    1
    52    29    26    1
    53    21    20    1
    54    20    17    1
    55    52    49    1
    56    19    18    2
    57    26    25    1
    58    26    27    1
    59    18    25   am
    60    18    17    1
    61    17    16    1
    62    51    50    2
    63    16    10   am
    64    28    27    2
    65    49    50    1
    66    49    48    1
    67    48    43   am
    68    10    11    2
    69    10     9    1
    70     9     8    1
    71     9    12    1
    72    43    42    1
    73    43    44    2
    74    14    13    2
    75    42    45    1
    76    42    41    1
    77    39    38    2
    78    45    46    1
    79     7     5    1
    80    13    12    1
    81    13    15   am
    82     5     2    1
    83     5     6    1
    84    38    41   am
    85    38    37    1
    86    41    47    1
    87     2     1    1
    88     2     3    1
    89    46    47    1
    90     3     4    2
    91    37    36    1
    92    37    40    1
