@<TRIPOS>MOLECULE
tmp/3c8zB01.pdb
 112 106 0 0 0
SMALL
GASTEIGER

@<TRIPOS>ATOM
      1  N         37.1850   37.9710    9.8510 N.3     3  MET3       -0.1245
      2  CA        35.7720   37.9680    9.4610 C.3     3  MET3        0.1570
      3  C         34.9910   37.1230   10.4610 C.2     3  MET3        0.2261
      4  O         35.4170   36.0140   10.8190 O.2     3  MET3       -0.2867
      5  CB        35.5860   37.4290    8.0170 C.3     3  MET3        0.0387
      6  CG        34.2410   37.8420    7.3670 C.3     3  MET3        0.0595
      7  SD        33.9100   37.3630    5.6500 S.3     3  MET3       -0.1393
      8  CE        34.6860   35.7480    5.5140 C.3     3  MET3        0.0692
      9  N         34.5980   33.5870    1.4060 N.3    84  VAL84      -0.1245
     10  CA        33.5330   34.3940    0.8110 C.3    84  VAL84       0.1561
     11  C         34.1380   35.1010   -0.4000 C.2    84  VAL84       0.2260
     12  O         35.1830   35.7730   -0.2870 O.2    84  VAL84      -0.2867
     13  CB        32.9360   35.4460    1.8000 C.3    84  VAL84       0.0252
     14  CG1       31.8050   36.2310    1.1130 C.3    84  VAL84       0.0019
     15  CG2       32.4170   34.7320    3.0460 C.3    84  VAL84       0.0019
     16  N         33.9440   37.8800   -2.0760 N.3    86  ASP86      -0.1239
     17  CA        33.2750   39.1640   -1.8540 C.3    86  ASP86       0.1674
     18  C         33.5930   40.2380   -2.8800 C.2    86  ASP86       0.2266
     19  O         33.0550   41.3500   -2.8200 O.2    86  ASP86      -0.2867
     20  CB        33.4510   39.6590   -0.4100 C.3    86  ASP86       0.1410
     21  CG        34.8910   39.9340   -0.0340 C.2    86  ASP86       0.3668
     22  OD1       35.8060   39.2720   -0.5540 O.co2  86  ASP86      -0.2456
     23  OD2       35.1140   40.8030    0.8520 O.co2  86  ASP86      -0.2456
     24  N         28.9110   47.5680   -4.0580 N.3   102  TRP102     -0.1227
     25  CA        29.2580   46.1430   -4.0010 C.3   102  TRP102      0.1737
     26  C         29.6920   45.6950   -2.6010 C.2   102  TRP102      0.2595
     27  O         29.3940   44.5650   -2.2010 O.2   102  TRP102     -0.2718
     28  CB        30.3030   45.7340   -5.0680 C.3   102  TRP102      0.0564
     29  CG        31.6670   46.3460   -4.9130 C.ar  102  TRP102      0.0003
     30  CD1       32.1040   47.5180   -5.4600 C.ar  102  TRP102      0.0946
     31  CD2       32.7870   45.7980   -4.1970 C.ar  102  TRP102      0.0152
     32  NE1       33.4090   47.7520   -5.1060 N.ar  102  TRP102     -0.2442
     33  CE2       33.8590   46.7100   -4.3350 C.ar  102  TRP102      0.0810
     34  CE3       32.9900   44.6250   -3.4500 C.ar  102  TRP102      0.0012
     35  CZ2       35.1060   46.4970   -3.7510 C.ar  102  TRP102      0.0191
     36  CZ3       34.2310   44.4130   -2.8630 C.ar  102  TRP102      0.0001
     37  CH2       35.2800   45.3430   -3.0190 C.ar  102  TRP102      0.0015
     38  N         30.3660   46.5740   -1.8620 N.am  103  ARG103     -0.1980
     39  CA        30.8080   46.2380   -0.5000 C.3   103  ARG103      0.1597
     40  C         29.6010   46.1100    0.4190 C.2   103  ARG103      0.2287
     41  O         29.5150   45.1910    1.2320 O.2   103  ARG103     -0.2864
     42  CB        31.7900   47.2850    0.0440 C.3   103  ARG103      0.0334
     43  CG        33.0660   47.4150   -0.7650 C.3   103  ARG103      0.0492
     44  CD        33.8750   48.6290   -0.3120 C.3   103  ARG103      0.2205
     45  NE        35.0530   48.8720   -1.1460 N.pl3 103  ARG103     -0.0865
     46  CZ        35.0550   49.6050   -2.2600 C.cat 103  ARG103      0.5346
     47  NH1       33.9350   50.1740   -2.7020 N.pl3 103  ARG103      0.1354
     48  NH2       36.1840   49.7670   -2.9400 N.pl3 103  ARG103      0.1354
     49  N         27.5520   42.9500   -0.4370 N.3   106  GLY106     -0.1210
     50  CA        28.2590   41.7720    0.0640 C.3   106  GLY106      0.1956
     51  C         28.1450   41.6390    1.5660 C.2   106  GLY106      0.2611
     52  O         27.9140   40.5450    2.0810 O.2   106  GLY106     -0.2717
     53  N         28.2890   42.7470    2.2890 N.am  107  ASP107     -0.1973
     54  CA        28.1450   42.7030    3.7540 C.3   107  ASP107      0.1709
     55  C         26.7530   42.2510    4.1720 C.2   107  ASP107      0.2293
     56  O         26.6020   41.4760    5.1160 O.2   107  ASP107     -0.2864
     57  CB        28.3940   44.0900    4.3700 C.3   107  ASP107      0.1436
     58  CG        29.8550   44.4220    4.5340 C.2   107  ASP107      0.3671
     59  OD1       30.7190   43.5910    4.1690 O.co2 107  ASP107     -0.2456
     60  OD2       30.1360   45.5250    5.0720 O.co2 107  ASP107     -0.2456
     61  N         26.1770   38.4810    3.2250 N.3   110  THR110     -0.1218
     62  CA        26.9770   37.6130    4.1190 C.3   110  THR110      0.1862
     63  C         26.3270   37.4930    5.4950 C.2   110  THR110      0.2287
     64  O         26.2580   36.4090    6.0710 O.2   110  THR110     -0.2866
     65  CB        28.4280   38.0800    4.2310 C.3   110  THR110      0.1770
     66  OG1       28.9760   38.1710    2.9100 O.3   110  THR110     -0.2211
     67  CG2       29.2450   37.0920    5.0860 C.3   110  THR110      0.0375
     68  N         25.0500   34.1150    7.4130 N.3   114  ARG114     -0.1245
     69  CA        25.3470   33.7330    8.8050 C.3   114  ARG114      0.1563
     70  C         24.0810   33.3600    9.5500 C.2   114  ARG114      0.2260
     71  O         24.0790   32.4020   10.3190 O.2   114  ARG114     -0.2867
     72  CB        26.0050   34.8820    9.5620 C.3   114  ARG114      0.0307
     73  CG        27.3910   35.2410    9.0430 C.3   114  ARG114      0.0489
     74  CD        27.8750   36.4440    9.8490 C.3   114  ARG114      0.2205
     75  NE        29.2100   36.8530    9.4220 N.pl3 114  ARG114     -0.0865
     76  CZ        29.4960   37.9530    8.7370 C.cat 114  ARG114      0.5346
     77  NH1       28.5340   38.8270    8.3920 N.pl3 114  ARG114      0.1354
     78  NH2       30.7600   38.1880    8.4040 N.pl3 114  ARG114      0.1354
     79  N         37.5090   36.0460    3.6440 N.3   130  ALA130     -0.1245
     80  CA        37.0270   36.8070    2.4840 C.3   130  ALA130      0.1562
     81  C         38.1190   36.9370    1.4210 C.2   130  ALA130      0.2260
     82  O         39.3010   37.1020    1.7620 O.2   130  ALA130     -0.2867
     83  CB        36.5560   38.2060    2.9110 C.3   130  ALA130      0.0290
     84  N         38.7210   39.5010   -0.2520 N.3   132  THR132     -0.1203
     85  CA        39.3580   40.8150   -0.0460 C.3   132  THR132      0.1994
     86  C         40.3560   40.8130    1.1160 C.2   132  THR132      0.2617
     87  O         41.1360   41.7710    1.2660 O.2   132  THR132     -0.2717
     88  CB        38.3220   41.9500    0.1710 C.3   132  THR132      0.1784
     89  OG1       37.4970   41.6460    1.3070 O.3   132  THR132     -0.2211
     90  CG2       37.4600   42.1580   -1.0740 C.3   132  THR132      0.0376
     91  N         40.3250   39.7710    1.9420 N.am  133  ASP133     -0.1973
     92  CA        41.2770   39.6540    3.0390 C.3   133  ASP133      0.1709
     93  C         42.4820   38.7940    2.6760 C.2   133  ASP133      0.2293
     94  O         43.4220   38.6330    3.4830 O.2   133  ASP133     -0.2864
     95  CB        40.5880   39.1610    4.3080 C.3   133  ASP133      0.1436
     96  CG        39.7500   40.2540    4.9710 C.2   133  ASP133      0.3671
     97  OD1       40.0120   41.4620    4.7270 O.co2 133  ASP133     -0.2456
     98  OD2       38.8350   39.9270    5.7210 O.co2 133  ASP133     -0.2456
     99  N         43.9300   46.6060   -6.1710 N.3   218  TRP218     -0.1241
    100  CA        44.9040   46.4340   -5.1050 C.3   218  TRP218      0.1605
    101  C         46.2960   46.5010   -5.7060 C.2   218  TRP218      0.2264
    102  O         46.4890   46.1920   -6.8710 O.2   218  TRP218     -0.2867
    103  CB        44.7280   45.0850   -4.3900 C.3   218  TRP218      0.0550
    104  CG        43.5140   45.0580   -3.5100 C.ar  218  TRP218      0.0003
    105  CD1       43.4740   45.2830   -2.1550 C.ar  218  TRP218      0.0946
    106  CD2       42.1600   44.8130   -3.9200 C.ar  218  TRP218      0.0152
    107  NE1       42.1620   45.1900   -1.6990 N.ar  218  TRP218     -0.2442
    108  CE2       41.3450   44.8960   -2.7570 C.ar  218  TRP218      0.0810
    109  CE3       41.5580   44.5060   -5.1440 C.ar  218  TRP218      0.0012
    110  CZ2       39.9580   44.6960   -2.8000 C.ar  218  TRP218      0.0191
    111  CZ3       40.1780   44.3220   -5.1930 C.ar  218  TRP218      0.0001
    112  CH2       39.3910   44.4200   -4.0170 C.ar  218  TRP218      0.0015
@<TRIPOS>BOND
     1   102   101    2
     2    99   100    1
     3   101   100    1
     4    30    32   ar
     5    30    29   ar
     6   111   109   ar
     7   111   112   ar
     8   109   106   ar
     9    32    33   ar
    10   100   103    1
    11    28    29    1
    12    28    25    1
    13    29    31   ar
    14   103   104    1
    15    33    31   ar
    16    33    35   ar
    17    31    34   ar
    18    24    25    1
    19   112   110   ar
    20    25    26    1
    21   106   104   ar
    22   106   108   ar
    23    35    37   ar
    24   104   105   ar
    25    34    36   ar
    26    37    36   ar
    27    48    46    1
    28    18    19    2
    29    18    17    1
    30   110   108   ar
    31   108   107   ar
    32    47    46    1
    33    26    27    2
    34    26    38   am
    35    46    45    2
    36   105   107   ar
    37    16    17    1
    38    38    39    1
    39    17    20    1
    40    45    44    1
    41    90    88    1
    42    43    44    1
    43    43    42    1
    44    22    21   ar
    45    39    42    1
    46    39    40    1
    47    49    50    1
    48    20    21    1
    49    11    12    2
    50    11    10    1
    51    84    85    1
    52    85    88    1
    53    85    86    1
    54    21    23   ar
    55    50    51    1
    56    88    89    1
    57    40    41    2
    58    10     9    1
    59    10    13    1
    60    14    13    1
    61    86    87    2
    62    86    91   am
    63    81    82    2
    64    81    80    1
    65    51    52    2
    66    51    53   am
    67    13    15    1
    68    91    92    1
    69    53    54    1
    70    80    83    1
    71    80    79    1
    72    93    92    1
    73    93    94    2
    74    66    65    1
    75    92    95    1
    76    61    62    1
    77    54    55    1
    78    54    57    1
    79    62    65    1
    80    62    63    1
    81    59    58   ar
    82    55    56    2
    83    65    67    1
    84    95    96    1
    85    57    58    1
    86    58    60   ar
    87    97    96   ar
    88    96    98   ar
    89    63    64    2
    90     8     7    1
    91     7     6    1
    92     6     5    1
    93    68    69    1
    94     5     2    1
    95    77    76    1
    96    78    76    1
    97    76    75    2
    98    69    70    1
    99    69    72    1
   100    73    72    1
   101    73    74    1
   102    75    74    1
   103     2     1    1
   104     2     3    1
   105    70    71    2
   106     3     4    2
