@<TRIPOS>MOLECULE
tmp/3c8zB00.pdb
 181 175 0 0 0
SMALL
GASTEIGER

@<TRIPOS>ATOM
      1  N         34.0040   25.5740   -0.9350 N.3    45  CYS45      -0.1221
      2  CA        33.7810   26.8330   -1.6050 C.3    45  CYS45       0.1808
      3  C         32.5300   27.5400   -1.0820 C.2    45  CYS45       0.2602
      4  O         31.4170   26.9980   -1.1560 O.2    45  CYS45      -0.2717
      5  CB        33.7430   26.6050   -3.1190 C.3    45  CYS45       0.0970
      6  SG        35.3950   26.2800   -3.8110 S.3    45  CYS45      -0.0800
      7  N         32.7710   28.7370   -0.5640 N.am   46  GLY46      -0.1942
      8  CA        31.7740   29.5970    0.0630 C.3    46  GLY46       0.2014
      9  C         30.9230   30.3650   -0.9030 C.2    46  GLY46       0.2639
     10  O         31.0240   30.2040   -2.1040 O.2    46  GLY46      -0.2714
     11  N         30.0970   31.2540   -0.3760 N.am   47  ILE47      -0.1963
     12  CA        29.1980   31.9830   -1.2490 C.3    47  ILE47       0.1727
     13  C         29.8530   33.1670   -1.9400 C.2    47  ILE47       0.2616
     14  O         30.8410   33.7480   -1.4470 O.2    47  ILE47      -0.2715
     15  CB        27.9290   32.4740   -0.5010 C.3    47  ILE47       0.0290
     16  CG1       28.3070   33.4940    0.5900 C.3    47  ILE47       0.0022
     17  CG2       27.1530   31.2650    0.0470 C.3    47  ILE47       0.0023
     18  CD1       27.0890   34.2270    1.1950 C.3    47  ILE47       0.0001
     19  N         29.2830   33.5200   -3.0910 N.am   48  THR48      -0.1951
     20  CA        29.4390   34.8630   -3.6410 C.3    48  THR48       0.1897
     21  C         28.1890   35.6070   -3.1500 C.2    48  THR48       0.2313
     22  O         27.0700   35.2470   -3.5090 O.2    48  THR48      -0.2863
     23  CB        29.5120   34.8500   -5.1870 C.3    48  THR48       0.1794
     24  OG1       30.6370   34.0500   -5.6160 O.3    48  THR48      -0.2208
     25  CG2       29.6520   36.2840   -5.7410 C.3    48  THR48       0.0378
     26  N         25.8390   37.8540   -3.4400 N.3    50  TYR50      -0.1241
     27  CA        25.0670   38.8440   -4.1990 C.3    50  TYR50       0.1605
     28  C         23.5760   38.6150   -4.0470 C.2    50  TYR50       0.2264
     29  O         22.7750   39.4660   -4.4630 O.2    50  TYR50      -0.2867
     30  CB        25.4990   38.9180   -5.6670 C.3    50  TYR50       0.0534
     31  CG        25.1360   37.7190   -6.4970 C.ar   50  TYR50      -0.0201
     32  CD1       26.0930   36.7630   -6.8300 C.ar   50  TYR50      -0.0009
     33  CD2       23.8360   37.5520   -6.9820 C.ar   50  TYR50      -0.0009
     34  CE1       25.7580   35.6600   -7.6160 C.ar   50  TYR50       0.0417
     35  CE2       23.4940   36.4610   -7.7610 C.ar   50  TYR50       0.0417
     36  CZ        24.4520   35.5190   -8.0750 C.ar   50  TYR50       0.1957
     37  OH        24.0920   34.4330   -8.8580 O.3    50  TYR50      -0.2866
     38  N         19.8860   30.4920   -0.9840 N.3    54  HIS54      -0.1241
     39  CA        18.8760   29.6140   -1.5630 C.3    54  HIS54       0.1621
     40  C         19.1000   28.1590   -1.1690 C.2    54  HIS54       0.2264
     41  O         20.1030   27.8030   -0.5530 O.2    54  HIS54      -0.2867
     42  CB        18.7130   29.7940   -3.0790 C.3    54  HIS54       0.0745
     43  CG        19.9330   29.4470   -3.8750 C.ar   54  HIS54       0.0817
     44  ND1       20.3220   28.1450   -4.1020 N.ar   54  HIS54      -0.2268
     45  CD2       20.8320   30.2270   -4.5180 C.ar   54  HIS54       0.1154
     46  CE1       21.4050   28.1370   -4.8610 C.ar   54  HIS54       0.1986
     47  NE2       21.7460   29.3880   -5.1140 N.ar   54  HIS54      -0.2212
     48  N         19.6130   25.5160   -2.9160 N.3    56  GLY56      -0.1210
     49  CA        20.8950   25.1130   -3.4630 C.3    56  GLY56       0.1956
     50  C         22.0270   25.2730   -2.4680 C.2    56  GLY56       0.2611
     51  O         22.5430   24.2900   -1.9360 O.2    56  GLY56      -0.2717
     52  N         22.4140   26.5190   -2.2140 N.am   57  HIS57      -0.1975
     53  CA        23.3940   26.8220   -1.1780 C.3    57  HIS57       0.1656
     54  C         23.2470   25.8780    0.0110 C.2    57  HIS57       0.2291
     55  O         24.1880   25.1740    0.3770 O.2    57  HIS57      -0.2864
     56  CB        23.2550   28.2740   -0.7170 C.3    57  HIS57       0.0771
     57  CG        23.4770   29.2770   -1.8050 C.ar   57  HIS57       0.0820
     58  ND1       24.4280   29.1100   -2.7890 N.ar   57  HIS57      -0.2267
     59  CD2       22.8710   30.4600   -2.0650 C.ar   57  HIS57       0.1154
     60  CE1       24.3980   30.1460   -3.6080 C.ar   57  HIS57       0.1986
     61  NE2       23.4620   30.9800   -3.1910 N.ar   57  HIS57      -0.2212
     62  N         21.7220   23.0530    0.6620 N.3    59  ALA59      -0.1231
     63  CA        21.9520   21.6240    0.4980 C.3    59  ALA59       0.1694
     64  C         23.4590   21.3310    0.4540 C.2    59  ALA59       0.2593
     65  O         23.9480   20.3570    1.0530 O.2    59  ALA59      -0.2718
     66  CB        21.2890   21.1330   -0.7620 C.3    59  ALA59       0.0304
     67  N         24.1940   22.1970   -0.2400 N.am   60  THR60      -0.1939
     68  CA        25.6430   22.0350   -0.3390 C.3    60  THR60       0.2028
     69  C         26.3370   22.1750    1.0360 C.2    60  THR60       0.2642
     70  O         27.1120   21.2830    1.4270 O.2    60  THR60      -0.2714
     71  CB        26.1980   22.9730   -1.4080 C.3    60  THR60       0.1808
     72  OG1       25.7370   22.4810   -2.6820 O.3    60  THR60      -0.2208
     73  CG2       27.7200   23.0070   -1.3740 C.3    60  THR60       0.0379
     74  N         26.0250   23.2310    1.7910 N.am   61  TYR61      -0.1973
     75  CA        26.6700   23.4020    3.1020 C.3    61  TYR61       0.1639
     76  C         26.1860   22.3790    4.1020 C.2    61  TYR61       0.2290
     77  O         26.9620   21.9830    4.9790 O.2    61  TYR61      -0.2864
     78  CB        26.5780   24.8590    3.6410 C.3    61  TYR61       0.0560
     79  CG        27.2260   25.7560    2.6260 C.ar   61  TYR61      -0.0198
     80  CD1       28.6040   25.6300    2.3540 C.ar   61  TYR61      -0.0009
     81  CD2       26.4800   26.6820    1.9000 C.ar   61  TYR61      -0.0009
     82  CE1       29.2230   26.4110    1.3760 C.ar   61  TYR61       0.0417
     83  CE2       27.1010   27.4820    0.9170 C.ar   61  TYR61       0.0417
     84  CZ        28.4610   27.3160    0.6550 C.ar   61  TYR61       0.1957
     85  OH        29.0500   28.0730   -0.3210 O.3    61  TYR61      -0.2866
     86  N         35.5540   30.1580    2.3110 N.3    83  ASN83      -0.1240
     87  CA        35.7930   31.5210    1.8740 C.3    83  ASN83       0.1653
     88  C         34.4770   32.2800    1.6760 C.2    83  ASN83       0.2266
     89  O         33.3880   31.6900    1.7620 O.2    83  ASN83      -0.2867
     90  CB        36.5350   31.4990    0.5410 C.3    83  ASN83       0.1155
     91  CG        35.7060   30.8260   -0.5430 C.2    83  ASN83       0.2627
     92  OD1       35.3350   29.6810   -0.3840 O.2    83  ASN83      -0.2716
     93  ND2       35.3930   31.5470   -1.6230 N.am   83  ASN83      -0.0877
     94  N         33.4990   34.9340   -1.5540 N.3    85  THR85      -0.1218
     95  CA        33.9780   35.5590   -2.7760 C.3    85  THR85       0.1862
     96  C         33.3660   36.9520   -2.8500 C.2    85  THR85       0.2287
     97  O         32.3870   37.1800   -3.5590 O.2    85  THR85      -0.2866
     98  CB        33.6570   34.6670   -4.0130 C.3    85  THR85       0.1770
     99  OG1       34.1190   33.3220   -3.7630 O.3    85  THR85      -0.2211
    100  CG2       34.3470   35.2470   -5.2580 C.3    85  THR85       0.0375
    101  N         39.3640   34.2660  -10.0040 N.3   229  TRP229     -0.1241
    102  CA        38.5640   33.5100   -9.0660 C.3   229  TRP229      0.1605
    103  C         39.2700   32.2710   -8.4940 C.2   229  TRP229      0.2264
    104  O         39.2890   32.0300   -7.2810 O.2   229  TRP229     -0.2867
    105  CB        37.2830   33.1320   -9.7950 C.3   229  TRP229      0.0550
    106  CG        36.2990   32.3150   -9.0210 C.ar  229  TRP229      0.0003
    107  CD1       36.1310   32.2570   -7.6530 C.ar  229  TRP229      0.0946
    108  CD2       35.3420   31.4150   -9.5840 C.ar  229  TRP229      0.0152
    109  NE1       35.1050   31.3880   -7.3480 N.ar  229  TRP229     -0.2442
    110  CE2       34.6190   30.8410   -8.5070 C.ar  229  TRP229      0.0810
    111  CE3       35.0380   31.0230  -10.8930 C.ar  229  TRP229      0.0012
    112  CZ2       33.6100   29.8930   -8.7030 C.ar  229  TRP229      0.0191
    113  CZ3       34.0060   30.0910  -11.0930 C.ar  229  TRP229      0.0001
    114  CH2       33.3040   29.5510  -10.0070 C.ar  229  TRP229      0.0015
    115  N         40.7160   30.8320   -4.1990 N.3   233  CYS233     -0.1235
    116  CA        40.4880   29.6200   -3.4210 C.3   233  CYS233      0.1677
    117  C         41.7470   28.7890   -3.2440 C.2   233  CYS233      0.2270
    118  O         41.9760   28.2180   -2.1860 O.2   233  CYS233     -0.2867
    119  CB        39.3040   28.8200   -3.9870 C.3   233  CYS233      0.0956
    120  SG        37.7460   29.7360   -3.6700 S.3   233  CYS233     -0.0801
    121  N         32.3610   21.3520   -2.9240 N.3   250  GLY250     -0.1210
    122  CA        31.4430   22.3730   -3.4620 C.3   250  GLY250      0.1956
    123  C         30.3820   21.7220   -4.3180 C.2   250  GLY250      0.2612
    124  O         30.2960   20.4910   -4.3990 O.2   250  GLY250     -0.2717
    125  N         29.5870   22.5510   -4.9870 N.am  251  GLY251     -0.1956
    126  CA        28.5960   22.0140   -5.9330 C.3   251  GLY251      0.1869
    127  C         29.2590   21.4820   -7.1940 C.2   251  GLY251      0.2309
    128  O         30.3870   21.8410   -7.5330 O.2   251  GLY251     -0.2863
    129  N         28.7750   22.2410  -10.2160 N.3   253  ASP253     -0.1225
    130  CA        29.0960   23.2810  -11.2070 C.3   253  ASP253      0.1805
    131  C         30.5480   23.7370  -11.0690 C.2   253  ASP253      0.2597
    132  O         31.1200   24.3050  -12.0030 O.2   253  ASP253     -0.2718
    133  CB        28.1260   24.4630  -11.0970 C.3   253  ASP253      0.1424
    134  CG        28.2770   25.2170   -9.7790 C.2   253  ASP253      0.3668
    135  OD1       28.1680   24.5810   -8.7200 O.co2 253  ASP253     -0.2456
    136  OD2       28.5390   26.4430   -9.8310 O.co2 253  ASP253     -0.2456
    137  N         31.1530   23.4540   -9.9090 N.am  254  LEU254     -0.1979
    138  CA        32.5400   23.8690   -9.6470 C.3   254  LEU254      0.1596
    139  C         33.5710   22.8600  -10.1650 C.2   254  LEU254      0.2287
    140  O         34.7850   23.1320  -10.1450 O.2   254  LEU254     -0.2864
    141  CB        32.7240   24.1040   -8.1400 C.3   254  LEU254      0.0297
    142  CG        31.8800   25.2600   -7.5680 C.3   254  LEU254      0.0022
    143  CD1       32.2680   25.4520   -6.0820 C.3   254  LEU254      0.0001
    144  CD2       32.0320   26.5830   -8.3070 C.3   254  LEU254      0.0001
    145  N         36.3130   25.7130  -12.0380 N.3   258  HIS258     -0.1241
    146  CA        36.8540   26.2370  -10.7700 C.3   258  HIS258      0.1621
    147  C         37.8020   25.2700  -10.0520 C.2   258  HIS258      0.2264
    148  O         38.9520   25.6090   -9.7690 O.2   258  HIS258     -0.2867
    149  CB        35.7230   26.6690   -9.8530 C.3   258  HIS258      0.0745
    150  CG        36.1650   27.3730   -8.6070 C.ar  258  HIS258      0.0817
    151  ND1       37.0110   28.4640   -8.6140 N.ar  258  HIS258     -0.2268
    152  CD2       35.8530   27.1440   -7.3070 C.ar  258  HIS258      0.1154
    153  CE1       37.1690   28.8990   -7.3690 C.ar  258  HIS258      0.1986
    154  NE2       36.4720   28.1160   -6.5640 N.ar  258  HIS258     -0.2212
    155  N         28.5510   18.0910   -4.6240 N.3   282  THR282     -0.1203
    156  CA        27.1230   17.9140   -4.3840 C.3   282  THR282      0.1994
    157  C         26.2840   18.0750   -5.6540 C.2   282  THR282      0.2618
    158  O         26.6500   18.8070   -6.5820 O.2   282  THR282     -0.2717
    159  CB        26.6340   18.9160   -3.3380 C.3   282  THR282      0.1784
    160  OG1       27.0310   20.2330   -3.7370 O.3   282  THR282     -0.2211
    161  CG2       27.2550   18.6040   -1.9740 C.3   282  THR282      0.0376
    162  N         25.1540   17.3790   -5.6670 N.am  283  GLY283     -0.1942
    163  CA        24.1650   17.5560   -6.7310 C.3   283  GLY283      0.2014
    164  C         23.5240   18.9270   -6.7000 C.2   283  GLY283      0.2639
    165  O         23.5430   19.6440   -5.6780 O.2   283  GLY283     -0.2714
    166  N         22.9550   19.3190   -7.8400 N.am  284  MET284     -0.1963
    167  CA        22.3490   20.6240   -7.9700 C.3   284  MET284      0.1736
    168  C         20.8790   20.5690   -7.5860 C.2   284  MET284      0.2616
    169  O         20.1580   19.6560   -8.0110 O.2   284  MET284     -0.2715
    170  CB        22.5350   21.1210   -9.4120 C.3   284  MET284      0.0427
    171  CG        24.0280   21.1510   -9.8120 C.3   284  MET284      0.0599
    172  SD        25.1120   22.2520   -8.8070 S.3   284  MET284     -0.1393
    173  CE        24.5350   23.7840   -9.4750 C.3   284  MET284      0.0692
    174  N         20.4560   21.5230   -6.7650 N.am  285  ILE285     -0.1977
    175  CA        19.0480   21.6330   -6.3750 C.3   285  ILE285      0.1596
    176  C         18.3270   22.5510   -7.3510 C.2   285  ILE285      0.2287
    177  O         18.8420   23.6280   -7.6910 O.2   285  ILE285     -0.2864
    178  CB        18.9170   22.1900   -4.9430 C.3   285  ILE285      0.0276
    179  CG1       19.7830   21.3750   -3.9550 C.3   285  ILE285      0.0022
    180  CG2       17.4520   22.1700   -4.4870 C.3   285  ILE285      0.0022
    181  CD1       19.4820   19.8510   -3.8900 C.3   285  ILE285      0.0001
@<TRIPOS>BOND
     1   145   146    1
     2   132   131    2
     3   130   133    1
     4   130   131    1
     5   130   129    1
     6   133   134    1
     7   113   111   ar
     8   113   114   ar
     9   131   137   am
    10   111   108   ar
    11   146   147    1
    12   146   149    1
    13   139   140    2
    14   139   138    1
    15   147   148    2
    16   114   112   ar
    17   101   102    1
    18   137   138    1
    19   149   150    1
    20   136   134   ar
    21   171   170    1
    22   171   172    1
    23   105   102    1
    24   105   106    1
    25   134   135   ar
    26   138   141    1
    27   108   106   ar
    28   108   110   ar
    29   173   172    1
    30   170   167    1
    31   102   103    1
    32   106   107   ar
    33    37    36    1
    34   112   110   ar
    35   151   150   ar
    36   151   153   ar
    37   150   152   ar
    38   110   109   ar
    39   103   104    2
    40   144   142    1
    41   141   142    1
    42    36    35   ar
    43    36    34   ar
    44   169   168    2
    45   167   166    1
    46   167   168    1
    47   166   164   am
    48    35    33   ar
    49   177   176    2
    50   107   109   ar
    51    34    32   ar
    52   168   174   am
    53   142   143    1
    54   128   127    2
    55   153   154   ar
    56   176   175    1
    57   152   154   ar
    58   127   126    1
    59    33    31   ar
    60    32    31   ar
    61   174   175    1
    62   163   164    1
    63   163   162    1
    64   164   165    2
    65   158   157    2
    66    31    30    1
    67   175   178    1
    68   126   125    1
    69    25    23    1
    70    30    27    1
    71   162   157   am
    72   157   156    1
    73    24    23    1
    74   100    98    1
    75    23    20    1
    76    47    46   ar
    77    47    45   ar
    78   125   123   am
    79   178   180    1
    80   178   179    1
    81    46    44   ar
    82   155   156    1
    83    45    43   ar
    84    29    28    2
    85   124   123    2
    86   156   159    1
    87   123   122    1
    88    27    28    1
    89    27    26    1
    90   115   116    1
    91    44    43   ar
    92    98    99    1
    93    98    95    1
    94   119   120    1
    95   119   116    1
    96   179   181    1
    97    43    42    1
    98     6     5    1
    99   160   159    1
   100    20    21    1
   101    20    19    1
   102    60    61   ar
   103    60    58   ar
   104    97    96    2
   105    22    21    2
   106    49    48    1
   107    49    50    1
   108   122   121    1
   109   116   117    1
   110   159   161    1
   111   117   118    2
   112    61    59   ar
   113     5     2    1
   114    19    13   am
   115    42    39    1
   116    96    95    1
   117    58    57   ar
   118    95    94    1
   119    72    71    1
   120    50    52   am
   121    50    51    2
   122    52    53    1
   123    10     9    2
   124    59    57   ar
   125    13    14    2
   126    13    12    1
   127    57    56    1
   128    93    91   am
   129     2     3    1
   130     2     1    1
   131    39    40    1
   132    39    38    1
   133    71    73    1
   134    71    68    1
   135    12    15    1
   136    12    11    1
   137    53    56    1
   138    53    54    1
   139    40    41    2
   140     4     3    2
   141     3     7   am
   142     9    11   am
   143     9     8    1
   144    66    63    1
   145     7     8    1
   146    91    92    2
   147    91    90    1
   148    15    17    1
   149    15    16    1
   150    68    67    1
   151    68    69    1
   152    85    84    1
   153    67    64   am
   154    54    55    2
   155    64    63    1
   156    64    65    2
   157    63    62    1
   158    90    87    1
   159    16    18    1
   160    84    83   ar
   161    84    82   ar
   162    83    81   ar
   163    69    70    2
   164    69    74   am
   165    82    80   ar
   166    88    89    2
   167    88    87    1
   168    74    75    1
   169    87    86    1
   170    81    79   ar
   171    80    79   ar
   172    79    78    1
   173    75    78    1
   174    75    76    1
   175    76    77    2
