@<TRIPOS>MOLECULE
tmp/3c94A00.pdb
 99 93 0 0 0
SMALL
GASTEIGER

@<TRIPOS>ATOM
      1  N         24.6000   36.8890   13.4120 N.3   141  LEU141     -0.1231
      2  CA        24.9790   35.9010   12.4170 C.3   141  LEU141      0.1693
      3  C         25.4860   36.5140   11.0980 C.2   141  LEU141      0.2591
      4  O         26.5280   36.1140   10.5950 O.2   141  LEU141     -0.2718
      5  CB        23.8310   34.9150   12.1940 C.3   141  LEU141      0.0284
      6  CG        23.3450   34.1880   13.4560 C.3   141  LEU141      0.0019
      7  CD1       21.9510   33.5950   13.2440 C.3   141  LEU141      0.0001
      8  CD2       24.3210   33.1130   13.9030 C.3   141  LEU141      0.0001
      9  N         24.7740   37.5100   10.5790 N.am  142  ARG142     -0.1980
     10  CA        25.0380   38.0580    9.2500 C.3   142  ARG142      0.1597
     11  C         24.9470   39.5990    9.2760 C.2   142  ARG142      0.2287
     12  O         24.0240   40.1710    8.7140 O.2   142  ARG142     -0.2864
     13  CB        24.0020   37.4990    8.2600 C.3   142  ARG142      0.0334
     14  CG        24.3860   36.2440    7.4510 C.3   142  ARG142      0.0492
     15  CD        25.3880   35.3820    8.1290 C.3   142  ARG142      0.2205
     16  NE        25.4140   34.0200    7.6290 N.pl3 142  ARG142     -0.0865
     17  CZ        25.8530   32.9920    8.3510 C.cat 142  ARG142      0.5346
     18  NH1       26.2900   33.2020    9.5940 N.pl3 142  ARG142      0.1354
     19  NH2       25.8550   31.7640    7.8500 N.pl3 142  ARG142      0.1354
     20  N         19.8780   41.1450    3.6320 N.3   192  GLN192     -0.1245
     21  CA        20.2000   39.8430    4.1810 C.3   192  GLN192      0.1566
     22  C         18.9800   38.9030    4.0160 C.2   192  GLN192      0.2260
     23  O         18.4500   38.3750    4.9980 O.2   192  GLN192     -0.2867
     24  CB        20.5880   40.0510    5.6540 C.3   192  GLN192      0.0367
     25  CG        21.6360   39.1340    6.2130 C.3   192  GLN192      0.0905
     26  CD        22.9450   39.0930    5.4150 C.2   192  GLN192      0.2608
     27  OE1       23.6170   40.1050    5.2270 O.2   192  GLN192     -0.2717
     28  NE2       23.3260   37.9010    5.0000 N.am  192  GLN192     -0.0878
     29  N         18.2590   35.7880    2.8430 N.3   194  ARG194     -0.1231
     30  CA        18.2130   34.3470    3.1380 C.3   194  ARG194      0.1694
     31  C         17.9970   34.0800    4.6180 C.2   194  ARG194      0.2591
     32  O         17.2100   33.1930    4.9980 O.2   194  ARG194     -0.2718
     33  CB        19.4560   33.6400    2.6280 C.3   194  ARG194      0.0321
     34  CG        19.3600   33.2550    1.1770 C.3   194  ARG194      0.0489
     35  CD        20.6130   32.5350    0.7020 C.3   194  ARG194      0.2205
     36  NE        21.4790   33.3910   -0.1160 N.pl3 194  ARG194     -0.0865
     37  CZ        21.7630   33.1820   -1.4100 C.cat 194  ARG194      0.5346
     38  NH1       21.2610   32.1330   -2.0570 N.pl3 194  ARG194      0.1354
     39  NH2       22.5660   34.0240   -2.0600 N.pl3 194  ARG194      0.1354
     40  N         18.6710   34.8660    5.4480 N.am  195  LEU195     -0.1980
     41  CA        18.4480   34.8330    6.8930 C.3   195  LEU195      0.1596
     42  C         17.0160   35.2300    7.2330 C.2   195  LEU195      0.2287
     43  O         16.3510   34.5830    8.0430 O.2   195  LEU195     -0.2864
     44  CB        19.4340   35.7630    7.6120 C.3   195  LEU195      0.0297
     45  CG        19.3520   35.7570    9.1350 C.3   195  LEU195      0.0022
     46  CD1       19.5580   34.3350    9.6630 C.3   195  LEU195      0.0001
     47  CD2       20.3550   36.7320    9.7680 C.3   195  LEU195      0.0001
     48  N         14.6650   32.4950    6.2860 N.3   198  TYR198     -0.1241
     49  CA        14.8510   31.3850    7.1950 C.3   198  TYR198      0.1605
     50  C         14.1610   31.6380    8.5280 C.2   198  TYR198      0.2264
     51  O         13.3840   30.8010    9.0020 O.2   198  TYR198     -0.2867
     52  CB        16.3390   31.1020    7.4320 C.3   198  TYR198      0.0534
     53  CG        16.5580   30.1350    8.5630 C.ar  198  TYR198     -0.0201
     54  CD1       16.6150   28.7670    8.3240 C.ar  198  TYR198     -0.0009
     55  CD2       16.6410   30.5880    9.8980 C.ar  198  TYR198     -0.0009
     56  CE1       16.7760   27.8810    9.3600 C.ar  198  TYR198      0.0417
     57  CE2       16.8020   29.7090   10.9410 C.ar  198  TYR198      0.0417
     58  CZ        16.8620   28.3640   10.6720 C.ar  198  TYR198      0.1957
     59  OH        17.0240   27.4850   11.6950 O.3   198  TYR198     -0.2866
     60  N         19.1180   27.7130   14.9140 N.3   299  ALA299     -0.1231
     61  CA        19.6160   27.2380   13.6210 C.3   299  ALA299      0.1694
     62  C         20.6940   26.1900   13.8310 C.2   299  ALA299      0.2591
     63  O         21.3610   26.1800   14.8700 O.2   299  ALA299     -0.2718
     64  CB        20.1440   28.3950   12.7940 C.3   299  ALA299      0.0304
     65  N         20.8580   25.2950   12.8570 N.am  300  GLN300     -0.1979
     66  CA        21.9070   24.2740   12.9440 C.3   300  GLN300      0.1601
     67  C         23.2300   24.9250   13.3100 C.2   300  GLN300      0.2287
     68  O         23.5220   26.0570   12.8760 O.2   300  GLN300     -0.2864
     69  CB        22.0210   23.4650   11.6490 C.3   300  GLN300      0.0394
     70  CG        22.1930   24.2870   10.3950 C.3   300  GLN300      0.0908
     71  CD        22.4810   23.4190    9.1750 C.2   300  GLN300      0.2608
     72  OE1       21.6590   22.5930    8.7960 O.2   300  GLN300     -0.2717
     73  NE2       23.6580   23.6130    8.5500 N.am  300  GLN300     -0.0878
     74  N         26.3480   24.9930   12.6700 N.3   302  ASN302     -0.1225
     75  CA        27.4000   25.4420   11.7680 C.3   302  ASN302      0.1785
     76  C         27.0360   26.6810   10.9190 C.2   302  ASN302      0.2597
     77  O         27.8380   27.1370   10.0930 O.2   302  ASN302     -0.2718
     78  CB        27.8450   24.2920   10.8570 C.3   302  ASN302      0.1169
     79  CG        26.8030   23.9530    9.7920 C.2   302  ASN302      0.2627
     80  OD1       25.6360   24.4140    9.8530 O.2   302  ASN302     -0.2716
     81  ND2       27.2160   23.1560    8.7960 N.am  302  ASN302     -0.0877
     82  N         25.8340   27.2080   11.1030 N.am  303  THR303     -0.1953
     83  CA        25.4910   28.4910   10.5040 C.3   303  THR303      0.1897
     84  C         26.2390   29.6180   11.2110 C.2   303  THR303      0.2313
     85  O         26.4550   30.6880   10.6210 O.2   303  THR303     -0.2863
     86  CB        24.0020   28.7840   10.5980 C.3   303  THR303      0.1794
     87  OG1       23.5810   28.6290   11.9630 O.3   303  THR303     -0.2208
     88  CG2       23.2040   27.8540    9.6820 C.3   303  THR303      0.0378
     89  N         29.6410   30.4330   11.8630 N.3   305  ARG305     -0.1245
     90  CA        30.9350   30.0190   11.3280 C.3   305  ARG305      0.1563
     91  C         32.0670   30.3240   12.3100 C.2   305  ARG305      0.2260
     92  O         31.9050   31.1760   13.1910 O.2   305  ARG305     -0.2867
     93  CB        31.1760   30.7300    9.9940 C.3   305  ARG305      0.0307
     94  CG        30.1480   30.4090    8.9270 C.3   305  ARG305      0.0489
     95  CD        30.0990   28.9210    8.6950 C.3   305  ARG305      0.2205
     96  NE        29.7480   28.5770    7.3250 N.pl3 305  ARG305     -0.0865
     97  CZ        29.7470   27.3370    6.8470 C.cat 305  ARG305      0.5346
     98  NH1       30.0710   26.3260    7.6340 N.pl3 305  ARG305      0.1354
     99  NH2       29.4260   27.1070    5.5820 N.pl3 305  ARG305      0.1354
@<TRIPOS>BOND
     1    39    37    1
     2    38    37    1
     3    37    36    2
     4    36    35    1
     5    35    34    1
     6    34    33    1
     7    33    30    1
     8    29    30    1
     9    30    31    1
    10    20    21    1
    11    22    21    1
    12    22    23    2
    13    21    24    1
    14    31    32    2
    15    31    40   am
    16    28    26   am
    17    27    26    2
    18    26    25    1
    19    40    41    1
    20    99    97    1
    21    24    25    1
    22    48    49    1
    23    97    96    2
    24    97    98    1
    25    41    42    1
    26    41    44    1
    27    49    52    1
    28    49    50    1
    29    42    43    2
    30    96    95    1
    31    52    53    1
    32    14    15    1
    33    14    13    1
    34    44    45    1
    35    16    15    1
    36    16    17    2
    37    19    17    1
    38    13    10    1
    39    54    53   ar
    40    54    56   ar
    41    17    18    1
    42    50    51    2
    43    73    71   am
    44    53    55   ar
    45    95    94    1
    46    12    11    2
    47    72    71    2
    48    81    79   am
    49    94    93    1
    50    45    46    1
    51    45    47    1
    52    71    70    1
    53    10    11    1
    54    10     9    1
    55    56    58   ar
    56    88    86    1
    57    79    80    2
    58    79    78    1
    59    55    57   ar
    60    93    90    1
    61    77    76    2
    62    70    69    1
    63    83    86    1
    64    83    82    1
    65    83    84    1
    66     9     3   am
    67     4     3    2
    68    86    87    1
    69    85    84    2
    70    58    57   ar
    71    58    59    1
    72    78    75    1
    73    76    82   am
    74    76    75    1
    75     3     2    1
    76    90    89    1
    77    90    91    1
    78    69    66    1
    79    75    74    1
    80     5     2    1
    81     5     6    1
    82    91    92    2
    83     2     1    1
    84    64    61    1
    85    65    66    1
    86    65    62   am
    87    68    67    2
    88    66    67    1
    89     7     6    1
    90     6     8    1
    91    61    62    1
    92    61    60    1
    93    62    63    2
