@<TRIPOS>MOLECULE
tmp/3c94A01.pdb
 110 104 0 0 0
SMALL
GASTEIGER

@<TRIPOS>ATOM
      1  N         21.9270   17.2780   19.4060 N.3   218  LYS218     -0.1231
      2  CA        22.3460   18.1600   18.2980 C.3   218  LYS218      0.1678
      3  C         22.4670   19.6010   18.7880 C.2   218  LYS218      0.2434
      4  O         21.4710   20.1980   19.2030 O.2   218  LYS218     -0.2733
      5  CB        21.3550   18.1120   17.1170 C.3   218  LYS218      0.0284
      6  CG        21.5970   17.0220   16.1150 C.3   218  LYS218      0.0035
      7  CD        22.6050   17.4440   15.0600 C.3   218  LYS218      0.0206
      8  CE        22.7930   16.3330   14.0160 C.3   218  LYS218      0.1093
      9  NZ        24.2120   15.8710   13.9730 N.3   218  LYS218     -0.1314
     10  N         23.6910   20.1610   18.7310 N.am  219  PRO219     -0.2729
     11  CA        23.9420   21.5380   19.1270 C.3   219  PRO219      0.1401
     12  C         23.3710   22.5250   18.1200 C.2   219  PRO219      0.2269
     13  O         23.4130   22.2670   16.9180 O.2   219  PRO219     -0.2865
     14  CB        25.4630   21.6260   19.1260 C.3   219  PRO219      0.0296
     15  CG        25.8830   20.6310   18.1230 C.3   219  PRO219      0.0237
     16  CD        24.9170   19.4970   18.2590 C.3   219  PRO219      0.0939
     17  N         26.2290   28.6330   21.4510 N.3   236  TRP236     -0.1241
     18  CA        25.8420   27.3050   21.0200 C.3   236  TRP236      0.1605
     19  C         25.1550   26.6050   22.1730 C.2   236  TRP236      0.2264
     20  O         25.6620   26.6020   23.2980 O.2   236  TRP236     -0.2867
     21  CB        27.0480   26.5100   20.5640 C.3   236  TRP236      0.0550
     22  CG        27.4330   26.7600   19.1360 C.ar  236  TRP236      0.0003
     23  CD1       26.7010   26.4540   18.0300 C.ar  236  TRP236      0.0946
     24  CD2       28.6640   27.3390   18.6570 C.ar  236  TRP236      0.0152
     25  NE1       27.3820   26.8220   16.8880 N.ar  236  TRP236     -0.2442
     26  CE2       28.5940   27.3590   17.2420 C.ar  236  TRP236      0.0810
     27  CE3       29.8170   27.8450   19.2850 C.ar  236  TRP236      0.0012
     28  CZ2       29.6380   27.8570   16.4400 C.ar  236  TRP236      0.0191
     29  CZ3       30.8540   28.3440   18.4810 C.ar  236  TRP236      0.0001
     30  CH2       30.7500   28.3440   17.0760 C.ar  236  TRP236      0.0015
     31  N         26.5300   25.9420   25.9850 N.3   255  LEU255     -0.1245
     32  CA        27.8370   25.2530   25.8060 C.3   255  LEU255      0.1561
     33  C         29.0780   26.1200   26.0480 C.2   255  LEU255      0.2260
     34  O         30.1840   25.6140   26.1390 O.2   255  LEU255     -0.2867
     35  CB        27.9280   24.5850   24.4250 C.3   255  LEU255      0.0270
     36  CG        27.0350   23.3730   24.1580 C.3   255  LEU255      0.0019
     37  CD1       27.2200   22.9330   22.7350 C.3   255  LEU255      0.0001
     38  CD2       27.3420   22.2330   25.1170 C.3   255  LEU255      0.0001
     39  N         24.0250   24.2190   14.1130 N.3   301  ALA301     -0.1231
     40  CA        25.1620   24.8300   14.8080 C.3   301  ALA301      0.1694
     41  C         26.1790   25.5280   13.8810 C.2   301  ALA301      0.2592
     42  O         26.7730   26.5560   14.2610 O.2   301  ALA301     -0.2718
     43  CB        25.8420   23.8110   15.6910 C.3   301  ALA301      0.0304
     44  N         26.3480   24.9930   12.6700 N.am  302  ASN302     -0.1974
     45  CA        27.4000   25.4420   11.7680 C.3   302  ASN302      0.1688
     46  C         27.0360   26.6810   10.9190 C.2   302  ASN302      0.2292
     47  O         27.8380   27.1370   10.0930 O.2   302  ASN302     -0.2864
     48  CB        27.8450   24.2920   10.8570 C.3   302  ASN302      0.1181
     49  CG        26.8030   23.9530    9.7920 C.2   302  ASN302      0.2629
     50  OD1       25.6360   24.4140    9.8530 O.2   302  ASN302     -0.2716
     51  ND2       27.2160   23.1560    8.7960 N.am  302  ASN302     -0.0877
     52  N         26.5960   29.3970   12.4850 N.3   304  LEU304     -0.1245
     53  CA        27.5830   30.2510   13.1450 C.3   304  LEU304      0.1561
     54  C         29.0060   29.7520   12.8110 C.2   304  LEU304      0.2260
     55  O         29.4990   28.7630   13.3710 O.2   304  LEU304     -0.2867
     56  CB        27.3400   30.3360   14.6610 C.3   304  LEU304      0.0270
     57  CG        28.1620   31.3730   15.4630 C.3   304  LEU304      0.0019
     58  CD1       27.6750   32.8180   15.2660 C.3   304  LEU304      0.0001
     59  CD2       28.1680   31.0230   16.9340 C.3   304  LEU304      0.0001
     60  N         33.2220   29.6340   12.1690 N.3   306  PRO306     -0.2116
     61  CA        34.3800   29.9830   13.0120 C.3   306  PRO306      0.1372
     62  C         34.6160   31.4970   13.0710 C.2   306  PRO306      0.2244
     63  O         34.6350   32.0710   14.1680 O.2   306  PRO306     -0.2868
     64  CB        35.5470   29.2630   12.3250 C.3   306  PRO306      0.0268
     65  CG        34.9040   28.0480   11.7110 C.3   306  PRO306      0.0207
     66  CD        33.5240   28.5040   11.2630 C.3   306  PRO306      0.0892
     67  N         34.9040   28.9680   20.5200 N.3   316  ARG316     -0.1245
     68  CA        34.4470   27.8090   19.7660 C.3   316  ARG316      0.1563
     69  C         34.9520   26.5010   20.3830 C.2   316  ARG316      0.2260
     70  O         34.1630   25.5960   20.6630 O.2   316  ARG316     -0.2867
     71  CB        34.8870   27.9350   18.3080 C.3   316  ARG316      0.0307
     72  CG        34.3160   26.8770   17.3860 C.3   316  ARG316      0.0489
     73  CD        34.9070   26.9930   15.9920 C.3   316  ARG316      0.2205
     74  NE        34.6800   25.7740   15.2100 N.pl3 316  ARG316     -0.0865
     75  CZ        35.5620   24.7830   15.0660 C.cat 316  ARG316      0.5346
     76  NH1       36.7630   24.8520   15.6340 N.pl3 316  ARG316      0.1354
     77  NH2       35.2410   23.7240   14.3390 N.pl3 316  ARG316      0.1354
     78  N         33.3910   25.3160   23.6110 N.3   319  CYS319     -0.1221
     79  CA        32.0310   24.8460   23.3870 C.3   319  CYS319      0.1808
     80  C         31.9930   23.4030   22.9320 C.2   319  CYS319      0.2601
     81  O         31.2310   22.5970   23.4660 O.2   319  CYS319     -0.2717
     82  CB        31.3350   25.7280   22.3680 C.3   319  CYS319      0.0970
     83  SG        30.7450   27.2600   23.0600 S.3   319  CYS319     -0.0800
     84  N         32.8290   23.0820   21.9460 N.am  320  LEU320     -0.1979
     85  CA        32.9650   21.7100   21.4420 C.3   320  LEU320      0.1596
     86  C         33.4370   20.7500   22.5300 C.2   320  LEU320      0.2287
     87  O         32.9980   19.6020   22.5740 O.2   320  LEU320     -0.2864
     88  CB        33.9190   21.6710   20.2550 C.3   320  LEU320      0.0297
     89  CG        33.4360   22.2930   18.9430 C.3   320  LEU320      0.0022
     90  CD1       34.6220   22.7310   18.0880 C.3   320  LEU320      0.0001
     91  CD2       32.5360   21.3350   18.1760 C.3   320  LEU320      0.0001
     92  N         30.3970   20.0050   24.8670 N.3   323  LEU323     -0.1245
     93  CA        29.4920   19.1000   24.1760 C.3   323  LEU323      0.1561
     94  C         29.9540   17.6460   24.3190 C.2   323  LEU323      0.2260
     95  O         29.1640   16.7750   24.7070 O.2   323  LEU323     -0.2867
     96  CB        29.3540   19.4850   22.6970 C.3   323  LEU323      0.0270
     97  CG        28.4520   18.6080   21.8220 C.3   323  LEU323      0.0019
     98  CD1       27.0180   18.5290   22.3850 C.3   323  LEU323      0.0001
     99  CD2       28.4540   19.1150   20.3820 C.3   323  LEU323      0.0001
    100  N         27.7290   14.5710   26.1160 N.3   327  ARG327     -0.1245
    101  CA        27.2030   13.4140   25.3760 C.3   327  ARG327      0.1563
    102  C         27.5520   12.1120   26.0650 C.2   327  ARG327      0.2260
    103  O         26.7230   11.2070   26.1680 O.2   327  ARG327     -0.2867
    104  CB        27.7420   13.4000   23.9440 C.3   327  ARG327      0.0307
    105  CG        27.2360   14.5310   23.1110 C.3   327  ARG327      0.0489
    106  CD        27.7190   14.4400   21.7020 C.3   327  ARG327      0.2205
    107  NE        26.6620   14.8210   20.7730 N.pl3 327  ARG327     -0.0865
    108  CZ        26.8760   15.3400   19.5720 C.cat 327  ARG327      0.5346
    109  NH1       28.1130   15.5660   19.1550 N.pl3 327  ARG327      0.1354
    110  NH2       25.8530   15.6360   18.7860 N.pl3 327  ARG327      0.1354
@<TRIPOS>BOND
     1    51    49   am
     2    49    50    2
     3    49    48    1
     4    47    46    2
     5    48    45    1
     6    46    45    1
     7    66    65    1
     8    66    60    1
     9    65    64    1
    10    45    44    1
    11    60    61    1
    12    64    61    1
    13    52    53    1
    14    44    41   am
    15    54    53    1
    16    54    55    2
    17    61    62    1
    18    62    63    2
    19    53    56    1
    20    41    42    2
    21    41    40    1
    22     9     8    1
    23     8     7    1
    24    39    40    1
    25    77    75    1
    26    56    57    1
    27    40    43    1
    28     7     6    1
    29    75    74    2
    30    75    76    1
    31    74    73    1
    32    58    57    1
    33    57    59    1
    34    73    72    1
    35     6     5    1
    36    28    30   ar
    37    28    26   ar
    38    25    26   ar
    39    25    23   ar
    40    13    12    2
    41    30    29   ar
    42     5     2    1
    43    26    24   ar
    44    72    71    1
    45    23    22   ar
    46    90    89    1
    47    12    11    1
    48    15    16    1
    49    15    14    1
    50    91    89    1
    51    16    10    1
    52     2     3    1
    53     2     1    1
    54    71    68    1
    55    29    27   ar
    56    24    22   ar
    57    24    27   ar
    58    10     3   am
    59    10    11    1
    60   110   108    1
    61     3     4    2
    62    89    88    1
    63    14    11    1
    64    22    21    1
    65   109   108    1
    66   108   107    2
    67    68    69    1
    68    68    67    1
    69    88    85    1
    70    99    97    1
    71    69    70    2
    72    21    18    1
    73   107   106    1
    74    18    17    1
    75    18    19    1
    76    85    84    1
    77    85    86    1
    78   106   105    1
    79    97    98    1
    80    97    96    1
    81    84    80   am
    82    19    20    2
    83    82    83    1
    84    82    79    1
    85    86    87    2
    86    96    93    1
    87    37    36    1
    88    80    79    1
    89    80    81    2
    90   105   104    1
    91    79    78    1
    92   104   101    1
    93    36    35    1
    94    36    38    1
    95    93    94    1
    96    93    92    1
    97    94    95    2
    98    35    32    1
    99   101   102    1
   100   101   100    1
   101    32    31    1
   102    32    33    1
   103    33    34    2
   104   102   103    2
