@<TRIPOS>MOLECULE
tmp/3c9cA00.pdb
 218 211 0 0 0
SMALL
GASTEIGER

@<TRIPOS>ATOM
      1  N        -59.8610   44.0710  -57.1530 N.3    14  GLU14      -0.1245
      2  CA       -60.3000   45.1960  -56.3460 C.3    14  GLU14       0.1567
      3  C        -59.1070   46.0730  -56.0030 C.2    14  GLU14       0.2260
      4  O        -59.2160   47.2970  -55.9450 O.2    14  GLU14      -0.2867
      5  CB       -60.9720   44.7030  -55.0730 C.3    14  GLU14       0.0388
      6  CG       -62.2270   43.9190  -55.3280 C.3    14  GLU14       0.1160
      7  CD       -63.0980   43.8140  -54.0990 C.2    14  GLU14       0.3649
      8  OE1      -62.6580   43.1950  -53.1000 O.co2  14  GLU14      -0.2457
      9  OE2      -64.2220   44.3620  -54.1330 O.co2  14  GLU14      -0.2457
     10  N        -58.1060   54.7310  -57.2340 N.3    21  ASN21      -0.1240
     11  CA       -58.8620   55.6750  -56.4180 C.3    21  ASN21       0.1653
     12  C        -58.0120   56.3910  -55.3810 C.2    21  ASN21       0.2266
     13  O        -58.3940   57.4520  -54.8780 O.2    21  ASN21      -0.2867
     14  CB       -60.0040   54.9610  -55.7150 C.3    21  ASN21       0.1155
     15  CG       -61.0770   54.5450  -56.6640 C.2    21  ASN21       0.2627
     16  OD1      -61.6710   55.3810  -57.3370 O.2    21  ASN21      -0.2716
     17  ND2      -61.3320   53.2470  -56.7410 N.am   21  ASN21      -0.0877
     18  N        -57.8210   60.0510  -54.6300 N.3    24  PHE24      -0.1227
     19  CA       -59.0790   60.6770  -54.2150 C.3    24  PHE24       0.1736
     20  C        -59.4190   60.4480  -52.7410 C.2    24  PHE24       0.2595
     21  O        -59.9820   61.3210  -52.0720 O.2    24  PHE24      -0.2718
     22  CB       -60.2400   60.1400  -55.0530 C.3    24  PHE24       0.0547
     23  CG       -60.2020   60.5550  -56.4900 C.ar   24  PHE24      -0.0202
     24  CD1      -59.0890   60.2870  -57.2800 C.ar   24  PHE24      -0.0042
     25  CD2      -61.2980   61.1940  -57.0670 C.ar   24  PHE24      -0.0042
     26  CE1      -59.0660   60.6510  -58.6270 C.ar   24  PHE24      -0.0003
     27  CE2      -61.2880   61.5620  -58.4090 C.ar   24  PHE24      -0.0003
     28  CZ       -60.1690   61.2890  -59.1910 C.ar   24  PHE24      -0.0000
     29  N        -59.0740   59.2620  -52.2530 N.am   25  LEU25      -0.1980
     30  CA       -59.3700   58.8580  -50.8900 C.3    25  LEU25       0.1596
     31  C        -58.3060   59.1620  -49.8580 C.2    25  LEU25       0.2287
     32  O        -58.6100   59.2330  -48.6700 O.2    25  LEU25      -0.2864
     33  CB       -59.6500   57.3590  -50.8580 C.3    25  LEU25       0.0297
     34  CG       -60.8510   56.8460  -51.6490 C.3    25  LEU25       0.0022
     35  CD1      -60.8610   55.3210  -51.6100 C.3    25  LEU25       0.0001
     36  CD2      -62.1380   57.4390  -51.0670 C.3    25  LEU25       0.0001
     37  N        -66.8130   41.8590  -42.5780 N.3   286  LYS286     -0.1245
     38  CA       -67.2540   40.5980  -43.1390 C.3   286  LYS286      0.1561
     39  C        -66.4790   39.4040  -42.6070 C.2   286  LYS286      0.2260
     40  O        -66.4400   38.3620  -43.2520 O.2   286  LYS286     -0.2867
     41  CB       -67.1310   40.6590  -44.6580 C.3   286  LYS286      0.0271
     42  CG       -67.6930   41.9320  -45.2550 C.3   286  LYS286      0.0035
     43  CD       -66.9930   42.2650  -46.5530 C.3   286  LYS286      0.0206
     44  CE       -67.3290   43.6710  -47.0240 C.3   286  LYS286      0.1093
     45  NZ       -66.4050   44.1050  -48.1190 N.3   286  LYS286     -0.1314
     46  N        -59.8860   44.4110  -44.2200 N.3   310  ARG310     -0.1245
     47  CA       -60.3690   45.7820  -44.2490 C.3   310  ARG310      0.1563
     48  C        -60.1910   46.4770  -42.9090 C.2   310  ARG310      0.2260
     49  O        -60.3250   45.8640  -41.8540 O.2   310  ARG310     -0.2867
     50  CB       -61.8430   45.8120  -44.6550 C.3   310  ARG310      0.0307
     51  CG       -62.1020   45.2820  -46.0440 C.3   310  ARG310      0.0489
     52  CD       -61.4070   46.1490  -47.0680 C.3   310  ARG310      0.2205
     53  NE       -61.3150   45.5240  -48.3890 N.pl3 310  ARG310     -0.0865
     54  CZ       -62.3540   45.2330  -49.1680 C.cat 310  ARG310      0.5346
     55  NH1      -63.5900   45.5060  -48.7650 N.pl3 310  ARG310      0.1354
     56  NH2      -62.1540   44.6730  -50.3580 N.pl3 310  ARG310      0.1354
     57  N        -61.7390   49.5230  -40.8530 N.3   312  HIS312     -0.1241
     58  CA       -62.8970   50.4030  -40.8580 C.3   312  HIS312      0.1621
     59  C        -62.6950   51.5270  -39.8810 C.2   312  HIS312      0.2264
     60  O        -62.1300   51.3220  -38.8140 O.2   312  HIS312     -0.2867
     61  CB       -64.1580   49.6370  -40.4560 C.3   312  HIS312      0.0745
     62  CG       -64.7700   48.8420  -41.5650 C.ar  312  HIS312      0.0817
     63  ND1      -64.0270   48.0570  -42.4190 N.ar  312  HIS312     -0.2268
     64  CD2      -66.0620   48.6790  -41.9330 C.ar  312  HIS312      0.1154
     65  CE1      -64.8340   47.4440  -43.2650 C.ar  312  HIS312      0.1986
     66  NE2      -66.0730   47.8040  -42.9910 N.ar  312  HIS312     -0.2212
     67  N        -72.0090   60.3270  -35.9670 N.3   318  LYS318     -0.1245
     68  CA       -72.9420   59.9890  -37.0240 C.3   318  LYS318      0.1561
     69  C        -73.8510   58.7910  -36.7380 C.2   318  LYS318      0.2260
     70  O        -74.5790   58.3390  -37.6240 O.2   318  LYS318     -0.2867
     71  CB       -72.1650   59.7990  -38.3260 C.3   318  LYS318      0.0271
     72  CG       -71.5510   61.1070  -38.7860 C.3   318  LYS318      0.0035
     73  CD       -70.4490   60.9430  -39.8040 C.3   318  LYS318      0.0206
     74  CE       -69.8230   62.3060  -40.0810 C.3   318  LYS318      0.1093
     75  NZ       -68.5980   62.2390  -40.9320 N.3   318  LYS318     -0.1314
     76  N        -80.3340   58.2050  -43.3200 N.3   323  GLN323     -0.1245
     77  CA       -79.6290   58.1700  -44.5930 C.3   323  GLN323      0.1566
     78  C        -80.4660   57.5540  -45.7160 C.2   323  GLN323      0.2260
     79  O        -81.2650   56.6400  -45.4910 O.2   323  GLN323     -0.2867
     80  CB       -78.3010   57.4150  -44.4530 C.3   323  GLN323      0.0367
     81  CG       -78.3780   56.0780  -43.7260 C.3   323  GLN323      0.0905
     82  CD       -77.1320   55.2300  -43.9420 C.2   323  GLN323      0.2608
     83  OE1      -76.0470   55.7530  -44.2010 O.2   323  GLN323     -0.2717
     84  NE2      -77.2810   53.9140  -43.8240 N.am  323  GLN323     -0.0878
     85  N        -80.2060   54.5230  -51.1830 N.3   326  GLU326     -0.1231
     86  CA       -79.1700   54.3810  -52.2070 C.3   326  GLU326      0.1699
     87  C        -77.8130   54.8210  -51.6740 C.2   326  GLU326      0.2592
     88  O        -76.7930   54.7150  -52.3540 O.2   326  GLU326     -0.2718
     89  CB       -79.5270   55.2150  -53.4410 C.3   326  GLU326      0.0402
     90  CG       -79.4670   54.4340  -54.7480 C.3   326  GLU326      0.1161
     91  CD       -78.1230   53.7610  -54.9670 C.2   326  GLU326      0.3649
     92  OE1      -77.1090   54.4820  -55.0730 O.co2 326  GLU326     -0.2457
     93  OE2      -78.0790   52.5120  -55.0300 O.co2 326  GLU326     -0.2457
     94  N        -77.8220   55.3060  -50.4420 N.am  327  ASP327     -0.1974
     95  CA       -76.6310   55.7990  -49.7610 C.3   327  ASP327      0.1709
     96  C        -76.4030   54.8940  -48.5500 C.2   327  ASP327      0.2293
     97  O        -75.2730   54.6680  -48.1200 O.2   327  ASP327     -0.2864
     98  CB       -76.8980   57.2470  -49.3260 C.3   327  ASP327      0.1436
     99  CG       -75.6690   57.9550  -48.8220 C.2   327  ASP327      0.3671
    100  OD1      -74.6640   58.0150  -49.5640 O.co2 327  ASP327     -0.2456
    101  OD2      -75.7230   58.4660  -47.6830 O.co2 327  ASP327     -0.2456
    102  N        -76.1980   52.0740  -48.3210 N.3   329  GLU329     -0.1231
    103  CA       -75.5700   50.8390  -48.7430 C.3   329  GLU329      0.1699
    104  C        -74.1310   51.1730  -48.4090 C.2   329  GLU329      0.2592
    105  O        -73.8810   52.1880  -47.7500 O.2   329  GLU329     -0.2718
    106  CB       -75.7530   50.6130  -50.2410 C.3   329  GLU329      0.0402
    107  CG       -77.1520   50.1660  -50.6040 C.3   329  GLU329      0.1161
    108  CD       -77.5970   48.9790  -49.7750 C.2   329  GLU329      0.3649
    109  OE1      -76.8990   47.9440  -49.7900 O.co2 329  GLU329     -0.2457
    110  OE2      -78.6430   49.0800  -49.1040 O.co2 329  GLU329     -0.2457
    111  N        -73.1820   50.3590  -48.8450 N.am  330  ASP330     -0.1960
    112  CA       -71.7880   50.6440  -48.5270 C.3   330  ASP330      0.1840
    113  C        -71.6320   50.5240  -47.0040 C.2   330  ASP330      0.2623
    114  O        -70.5370   50.2880  -46.4960 O.2   330  ASP330     -0.2715
    115  CB       -71.4120   52.0680  -48.9710 C.3   330  ASP330      0.1450
    116  CG       -71.9250   52.4130  -50.3650 C.2   330  ASP330      0.3671
    117  OD1      -71.6360   51.6600  -51.3180 O.co2 330  ASP330     -0.2456
    118  OD2      -72.6100   53.4490  -50.5090 O.co2 330  ASP330     -0.2456
    119  N        -72.7440   50.6900  -46.2890 N.am  331  GLY331     -0.1940
    120  CA       -72.7470   50.5940  -44.8390 C.3   331  GLY331      0.1998
    121  C        -73.5840   51.6510  -44.1160 C.2   331  GLY331      0.2481
    122  O        -74.1680   52.5470  -44.7440 O.2   331  GLY331     -0.2729
    123  N        -73.6540   51.5650  -42.7740 N.am  332  PRO332     -0.2715
    124  CA       -74.3950   52.4740  -41.8880 C.3   332  PRO332      0.1521
    125  C        -73.7380   53.8480  -41.7920 C.2   332  PRO332      0.2440
    126  O        -72.5940   54.0360  -42.2080 O.2   332  PRO332     -0.2731
    127  CB       -74.3770   51.7390  -40.5550 C.3   332  PRO332      0.0310
    128  CG       -73.0430   51.0730  -40.5880 C.3   332  PRO332      0.0237
    129  CD       -72.9760   50.5160  -41.9900 C.3   332  PRO332      0.0939
    130  N        -74.4510   54.8260  -41.2250 N.am  333  PRO333     -0.2727
    131  CA       -73.9200   56.1830  -41.0880 C.3   333  PRO333      0.1402
    132  C        -72.6750   56.3220  -40.2150 C.2   333  PRO333      0.2269
    133  O        -71.8750   57.2250  -40.4330 O.2   333  PRO333     -0.2865
    134  CB       -75.1150   56.9640  -40.5390 C.3   333  PRO333      0.0296
    135  CG       -75.8240   55.9490  -39.7320 C.3   333  PRO333      0.0237
    136  CD       -75.7870   54.7290  -40.6220 C.3   333  PRO333      0.0939
    137  N        -70.2210   54.5070  -40.2700 N.3   335  LEU335     -0.1231
    138  CA       -69.0830   54.1320  -41.1100 C.3   335  LEU335      0.1693
    139  C        -68.6070   55.3840  -41.8270 C.2   335  LEU335      0.2592
    140  O        -69.3680   55.9960  -42.5700 O.2   335  LEU335     -0.2718
    141  CB       -69.4970   53.0890  -42.1450 C.3   335  LEU335      0.0284
    142  CG       -68.4420   52.0350  -42.4890 C.3   335  LEU335      0.0019
    143  CD1      -68.9220   51.2120  -43.6580 C.3   335  LEU335      0.0001
    144  CD2      -67.1290   52.6940  -42.8220 C.3   335  LEU335      0.0001
    145  N        -67.3530   55.7630  -41.6060 N.am  336  LEU336     -0.1966
    146  CA       -66.8060   56.9680  -42.2150 C.3   336  LEU336      0.1728
    147  C        -65.8050   56.6770  -43.3070 C.2   336  LEU336      0.2616
    148  O        -65.7350   57.4030  -44.2990 O.2   336  LEU336     -0.2715
    149  CB       -66.1510   57.8470  -41.1430 C.3   336  LEU336      0.0311
    150  CG       -65.3480   59.0760  -41.5820 C.3   336  LEU336      0.0022
    151  CD1      -65.7690   60.3060  -40.7900 C.3   336  LEU336      0.0001
    152  CD2      -63.8770   58.8050  -41.3640 C.3   336  LEU336      0.0001
    153  N        -65.0370   55.6110  -43.1330 N.am  337  PHE337     -0.1960
    154  CA       -64.0250   55.2610  -44.1180 C.3   337  PHE337      0.1771
    155  C        -63.7060   53.7700  -44.0960 C.2   337  PHE337      0.2619
    156  O        -63.7970   53.1060  -43.0520 O.2   337  PHE337     -0.2715
    157  CB       -62.7480   56.0580  -43.8260 C.3   337  PHE337      0.0574
    158  CG       -61.6990   55.9600  -44.8980 C.ar  337  PHE337     -0.0200
    159  CD1      -61.7480   56.7900  -46.0160 C.ar  337  PHE337     -0.0042
    160  CD2      -60.6430   55.0580  -44.7760 C.ar  337  PHE337     -0.0042
    161  CE1      -60.7520   56.7250  -46.9960 C.ar  337  PHE337     -0.0003
    162  CE2      -59.6450   54.9830  -45.7480 C.ar  337  PHE337     -0.0003
    163  CZ       -59.6960   55.8180  -46.8590 C.ar  337  PHE337     -0.0000
    164  N        -63.3500   53.2360  -45.2550 N.am  338  ILE338     -0.1977
    165  CA       -62.9730   51.8360  -45.3290 C.3   338  ILE338      0.1596
    166  C        -61.6410   51.8260  -46.0440 C.2   338  ILE338      0.2287
    167  O        -61.5270   52.3230  -47.1490 O.2   338  ILE338     -0.2864
    168  CB       -63.9910   50.9660  -46.1370 C.3   338  ILE338      0.0276
    169  CG1      -65.2810   50.7570  -45.3360 C.3   338  ILE338      0.0022
    170  CG2      -63.3690   49.5990  -46.4570 C.3   338  ILE338      0.0022
    171  CD1      -66.3090   49.9240  -46.0510 C.3   338  ILE338      0.0001
    172  N        -59.0180   49.7430  -47.9480 N.3   340  GLY340     -0.1225
    173  CA       -58.8260   48.4430  -48.5680 C.3   340  GLY340      0.1811
    174  C        -57.5080   48.2830  -49.3070 C.2   340  GLY340      0.2280
    175  O        -57.4410   47.6120  -50.3330 O.2   340  GLY340     -0.2866
    176  N        -60.9730   65.9040  -46.9820 N.3   376  ASN376     -0.1225
    177  CA       -62.3770   66.1680  -47.2840 C.3   376  ASN376      0.1785
    178  C        -63.2800   65.0010  -46.9170 C.2   376  ASN376      0.2597
    179  O        -64.5040   65.1200  -46.9530 O.2   376  ASN376     -0.2718
    180  CB       -62.5780   66.5440  -48.7610 C.3   376  ASN376      0.1169
    181  CG       -61.4500   66.0700  -49.6490 C.2   376  ASN376      0.2627
    182  OD1      -60.3560   66.6340  -49.6360 O.2   376  ASN376     -0.2716
    183  ND2      -61.7090   65.0250  -50.4290 N.am  376  ASN376     -0.0877
    184  N        -62.6820   63.8730  -46.5490 N.am  377  VAL377     -0.1966
    185  CA       -63.4810   62.7220  -46.1620 C.3   377  VAL377      0.1727
    186  C        -63.9340   62.8960  -44.7260 C.2   377  VAL377      0.2616
    187  O        -64.8340   62.2040  -44.2720 O.2   377  VAL377     -0.2715
    188  CB       -62.6930   61.4070  -46.2430 C.3   377  VAL377      0.0290
    189  CG1      -63.6230   60.2370  -46.0150 C.3   377  VAL377      0.0023
    190  CG2      -62.0170   61.2830  -47.5840 C.3   377  VAL377      0.0023
    191  N        -63.3130   63.8220  -44.0070 N.am  378  TYR378     -0.1960
    192  CA       -63.6790   64.0430  -42.6160 C.3   378  TYR378      0.1771
    193  C        -63.7570   65.5070  -42.2310 C.2   378  TYR378      0.2620
    194  O        -64.0600   65.8260  -41.0820 O.2   378  TYR378     -0.2715
    195  CB       -62.6800   63.3490  -41.6930 C.3   378  TYR378      0.0574
    196  CG       -61.2670   63.8950  -41.7770 C.ar  378  TYR378     -0.0198
    197  CD1      -60.9320   65.1310  -41.2210 C.ar  378  TYR378     -0.0009
    198  CD2      -60.2630   63.1690  -42.4110 C.ar  378  TYR378     -0.0009
    199  CE1      -59.6320   65.6260  -41.2960 C.ar  378  TYR378      0.0417
    200  CE2      -58.9610   63.6540  -42.4910 C.ar  378  TYR378      0.0417
    201  CZ       -58.6500   64.8810  -41.9340 C.ar  378  TYR378      0.1957
    202  OH       -57.3570   65.3510  -42.0340 O.3   378  TYR378     -0.2866
    203  N        -63.4820   66.4020  -43.1710 N.am  379  ASN379     -0.1958
    204  CA       -63.5190   67.8180  -42.8510 C.3   379  ASN379      0.1819
    205  C        -64.8410   68.4650  -43.2260 C.2   379  ASN379      0.2621
    206  O        -65.8830   67.8140  -43.2150 O.2   379  ASN379     -0.2715
    207  CB       -62.3700   68.5490  -43.5380 C.3   379  ASN379      0.1195
    208  CG       -61.9500   69.7910  -42.7840 C.2   379  ASN379      0.2630
    209  OD1      -62.7740   70.6500  -42.4760 O.2   379  ASN379     -0.2716
    210  ND2      -60.6630   69.8910  -42.4760 N.am  379  ASN379     -0.0877
    211  N        -64.7900   69.7520  -43.5530 N.am  380  ASP380     -0.1971
    212  CA       -65.9760   70.5160  -43.9200 C.3   380  ASP380      0.1709
    213  C        -66.9820   70.5360  -42.7800 C.2   380  ASP380      0.2293
    214  O        -66.7340   69.8710  -41.7490 O.2   380  ASP380     -0.2864
    215  CB       -66.6350   69.9270  -45.1680 C.3   380  ASP380      0.1436
    216  CG       -65.7350   69.9830  -46.3800 C.2   380  ASP380      0.3671
    217  OD1      -64.7090   69.2700  -46.3960 O.co2 380  ASP380     -0.2456
    218  OD2      -66.0510   70.7460  -47.3150 O.co2 380  ASP380     -0.2456
@<TRIPOS>BOND
     1    28    26   ar
     2    28    27   ar
     3    26    24   ar
     4    27    25   ar
     5    16    15    2
     6    24    23   ar
     7    10    11    1
     8     1     2    1
     9    25    23   ar
    10    17    15   am
    11    15    14    1
    12    23    22    1
    13    11    14    1
    14    11    12    1
    15     2     3    1
    16     2     5    1
    17     3     4    2
    18    12    13    2
    19     6     5    1
    20     6     7    1
    21    92    91   ar
    22    22    19    1
    23    93    91   ar
    24    91    90    1
    25    90    89    1
    26    18    19    1
    27    19    20    1
    28     9     7   ar
    29     7     8   ar
    30    89    86    1
    31    20    29   am
    32    20    21    2
    33    88    87    2
    34    29    30    1
    35    86    87    1
    36    86    85    1
    37    87    94   am
    38    34    35    1
    39    34    36    1
    40    34    33    1
    41   117   116   ar
    42    30    33    1
    43    30    31    1
    44   107   106    1
    45   107   108    1
    46   118   116   ar
    47    94    95    1
    48   183   181   am
    49   116   115    1
    50    56    54    1
    51   175   174    2
    52   106   103    1
    53    31    32    2
    54   109   108   ar
    55   108   110   ar
    56    95    98    1
    57    95    96    1
    58   181   182    2
    59   181   180    1
    60   100    99   ar
    61    98    99    1
    62   174   173    1
    63    54    55    1
    64    54    53    2
    65   115   112    1
    66   111   112    1
    67   111   104   am
    68    99   101   ar
    69   180   177    1
    70   103   104    1
    71   103   102    1
    72   173   172    1
    73    96    97    2
    74   112   113    1
    75   104   105    2
    76    53    52    1
    77    45    44    1
    78   190   188    1
    79   218   216   ar
    80   177   176    1
    81   177   178    1
    82   167   166    2
    83    52    51    1
    84    44    43    1
    85   113   114    2
    86   113   119   am
    87   161   163   ar
    88   161   159   ar
    89   179   178    2
    90   178   184   am
    91   163   162   ar
    92    43    42    1
    93   184   185    1
    94   170   168    1
    95   217   216   ar
    96   216   215    1
    97   119   120    1
    98   188   185    1
    99   188   189    1
   100   185   186    1
   101   168   169    1
   102   168   165    1
   103   171   169    1
   104    51    50    1
   105   166   165    1
   106   159   158   ar
   107   162   160   ar
   108    78    79    2
   109    78    77    1
   110   165   164    1
   111   164   155   am
   112    42    41    1
   113   215   212    1
   114   158   160   ar
   115   158   157    1
   116   120   121    1
   117   122   121    2
   118   186   187    2
   119   186   191   am
   120    41    38    1
   121    50    47    1
   122    77    80    1
   123    77    76    1
   124    80    81    1
   125   148   147    2
   126    47    46    1
   127    47    48    1
   128    83    82    2
   129   154   155    1
   130   154   157    1
   131   154   153    1
   132   121   123   am
   133   155   156    2
   134   191   192    1
   135    82    84   am
   136    82    81    1
   137   212   211    1
   138   212   213    1
   139   143   142    1
   140   211   205   am
   141   207   204    1
   142   207   208    1
   143   147   153   am
   144   147   146    1
   145    65    66   ar
   146    65    63   ar
   147    40    39    2
   148   205   206    2
   149   205   204    1
   150   203   204    1
   151   203   193   am
   152    38    39    1
   153    38    37    1
   154    66    64   ar
   155    48    49    2
   156   144   142    1
   157   208   210   am
   158   208   209    2
   159   213   214    2
   160   123   129    1
   161   123   124    1
   162   192   193    1
   163   192   195    1
   164   140   139    2
   165   200   198   ar
   166   200   201   ar
   167   142   141    1
   168    63    62   ar
   169   198   196   ar
   170   193   194    2
   171   146   145    1
   172   146   149    1
   173   126   125    2
   174   141   138    1
   175   202   201    1
   176   129   128    1
   177   201   199   ar
   178    64    62   ar
   179   124   125    1
   180   124   127    1
   181   139   145   am
   182   139   138    1
   183   125   130   am
   184   196   195    1
   185   196   197   ar
   186   150   152    1
   187   150   149    1
   188   150   151    1
   189    62    61    1
   190   199   197   ar
   191   130   131    1
   192   130   136    1
   193   138   137    1
   194   131   134    1
   195   131   132    1
   196    75    74    1
   197    58    57    1
   198    58    61    1
   199    58    59    1
   200   136   135    1
   201   128   127    1
   202   134   135    1
   203   133   132    2
   204    74    73    1
   205    59    60    2
   206    73    72    1
   207    72    71    1
   208    71    68    1
   209    70    69    2
   210    68    69    1
   211    68    67    1
