@<TRIPOS>MOLECULE
tmp/3c9eA00.pdb
 179 174 0 0 0
SMALL
GASTEIGER

@<TRIPOS>ATOM
      1  N          9.4360   42.5360   58.8010 N.3     3  ASP3       -0.1225
      2  CA        10.8890   42.6630   58.8470 C.3     3  ASP3        0.1805
      3  C         11.4390   42.8440   57.4400 C.2     3  ASP3        0.2598
      4  O         12.5800   43.2570   57.2530 O.2     3  ASP3       -0.2718
      5  CB        11.5290   41.4320   59.4910 C.3     3  ASP3        0.1424
      6  CG        11.2180   41.3210   60.9720 C.2     3  ASP3        0.3668
      7  OD1       11.1050   42.3740   61.6380 O.co2   3  ASP3       -0.2456
      8  OD2       11.1000   40.1840   61.4740 O.co2   3  ASP3       -0.2456
      9  N         10.6200   42.5290   56.4470 N.am    4  SER4       -0.1938
     10  CA        11.0400   42.6760   55.0640 C.3     4  SER4        0.2055
     11  C          9.8350   42.6430   54.1450 C.2     4  SER4        0.2643
     12  O          8.8170   42.0180   54.4550 O.2     4  SER4       -0.2714
     13  CB        12.0050   41.5540   54.6660 C.3     4  SER4        0.2130
     14  OG        11.3300   40.3160   54.5250 O.3     4  SER4       -0.2179
     15  N          9.9580   43.3320   53.0180 N.am    5  VAL5       -0.1963
     16  CA         8.9030   43.3730   52.0210 C.3     5  VAL5        0.1727
     17  C          9.5840   43.6450   50.6930 C.2     5  VAL5        0.2616
     18  O         10.5170   44.4440   50.6140 O.2     5  VAL5       -0.2715
     19  CB         7.8660   44.4830   52.3130 C.3     5  VAL5        0.0290
     20  CG1        8.5000   45.8510   52.1680 C.3     5  VAL5        0.0023
     21  CG2        6.6780   44.3470   51.3620 C.3     5  VAL5        0.0023
     22  N          9.1270   42.9560   49.6590 N.am    6  ASP6       -0.1971
     23  CA         9.6850   43.1020   48.3250 C.3     6  ASP6        0.1709
     24  C          8.4930   43.1640   47.3750 C.2     6  ASP6        0.2293
     25  O          7.9410   42.1300   47.0000 O.2     6  ASP6       -0.2864
     26  CB        10.5600   41.8860   48.0030 C.3     6  ASP6        0.1436
     27  CG        11.3050   42.0270   46.6900 C.2     6  ASP6        0.3671
     28  OD1       10.8770   42.8360   45.8410 O.co2   6  ASP6       -0.2456
     29  OD2       12.3130   41.3130   46.5000 O.co2   6  ASP6       -0.2456
     30  N          8.2980   43.5160   44.3560 N.3     8  ARG8       -0.1231
     31  CA         8.4820   42.8510   43.0720 C.3     8  ARG8        0.1694
     32  C          7.7930   41.4860   43.1660 C.2     8  ARG8        0.2592
     33  O          7.3560   40.9230   42.1610 O.2     8  ARG8       -0.2718
     34  CB         9.9690   42.6650   42.7650 C.3     8  ARG8        0.0321
     35  CG        10.7240   43.9690   42.5480 C.3     8  ARG8        0.0489
     36  CD        12.2160   43.7260   42.4420 C.3     8  ARG8        0.2205
     37  NE        12.7450   43.0810   43.6410 N.pl3   8  ARG8       -0.0865
     38  CZ        14.0100   42.6990   43.7860 C.cat   8  ARG8        0.5346
     39  NH1       14.8820   42.8990   42.8040 N.pl3   8  ARG8        0.1354
     40  NH2       14.4040   42.1170   44.9110 N.pl3   8  ARG8        0.1354
     41  N          7.6890   40.9650   44.3840 N.am    9  LYS9       -0.1966
     42  CA         7.0560   39.6650   44.6070 C.3     9  LYS9        0.1728
     43  C          5.5360   39.7780   44.6000 C.2     9  LYS9        0.2616
     44  O          4.8280   38.7670   44.6350 O.2     9  LYS9       -0.2715
     45  CB         7.5230   39.0750   45.9370 C.3     9  LYS9        0.0311
     46  CG         9.0150   38.7890   45.9760 C.3     9  LYS9        0.0038
     47  CD         9.4360   38.1560   47.2860 C.3     9  LYS9        0.0206
     48  CE        10.9130   37.8010   47.2560 C.3     9  LYS9        0.1093
     49  NZ        11.3900   37.3530   48.5970 N.3     9  LYS9       -0.1314
     50  N          5.0390   41.0110   44.5670 N.am   10  LYS10      -0.1977
     51  CA         3.6020   41.2570   44.5480 C.3    10  LYS10       0.1596
     52  C          3.1810   41.8070   43.1830 C.2    10  LYS10       0.2287
     53  O          2.0150   42.1170   42.9630 O.2    10  LYS10      -0.2864
     54  CB         3.2230   42.2380   45.6600 C.3    10  LYS10       0.0298
     55  CG         3.7190   41.8030   47.0340 C.3    10  LYS10       0.0038
     56  CD         3.4230   42.8260   48.1210 C.3    10  LYS10       0.0206
     57  CE         1.9470   42.8640   48.4790 C.3    10  LYS10       0.1093
     58  NZ         1.6990   43.7580   49.6490 N.3    10  LYS10      -0.1314
     59  N         28.5480   48.6450   41.1370 N.3   145  TYR145     -0.1241
     60  CA        27.9360   47.6890   42.0490 C.3   145  TYR145      0.1605
     61  C         27.4560   46.4660   41.2620 C.2   145  TYR145      0.2264
     62  O         27.0010   46.5910   40.1200 O.2   145  TYR145     -0.2867
     63  CB        26.7450   48.3380   42.7650 C.3   145  TYR145      0.0534
     64  CG        25.8420   47.3490   43.4680 C.ar  145  TYR145     -0.0201
     65  CD1       24.7680   46.7580   42.8030 C.ar  145  TYR145     -0.0009
     66  CD2       26.0820   46.9780   44.7890 C.ar  145  TYR145     -0.0009
     67  CE1       23.9540   45.8250   43.4380 C.ar  145  TYR145      0.0417
     68  CE2       25.2810   46.0480   45.4310 C.ar  145  TYR145      0.0417
     69  CZ        24.2180   45.4750   44.7530 C.ar  145  TYR145      0.1957
     70  OH        23.4180   44.5580   45.4000 O.3   145  TYR145     -0.2866
     71  N         26.7350   43.1390   43.4360 N.3   147  LYS147     -0.1231
     72  CA        26.0460   42.2930   44.4100 C.3   147  LYS147      0.1693
     73  C         26.3100   42.6820   45.8600 C.2   147  LYS147      0.2592
     74  O         27.1980   43.4880   46.1530 O.2   147  LYS147     -0.2718
     75  CB        26.4520   40.8320   44.2130 C.3   147  LYS147      0.0285
     76  CG        27.9350   40.5890   44.4290 C.3   147  LYS147      0.0035
     77  CD        28.3070   39.1390   44.1620 C.3   147  LYS147      0.0206
     78  CE        29.8160   38.9680   44.1290 C.3   147  LYS147      0.1093
     79  NZ        30.4210   39.8210   43.0630 N.3   147  LYS147     -0.1314
     80  N         25.5370   42.0840   46.7620 N.am  148  GLY148     -0.1957
     81  CA        25.6860   42.3660   48.1770 C.3   148  GLY148      0.1869
     82  C         24.9800   43.6390   48.5950 C.2   148  GLY148      0.2309
     83  O         24.2230   44.2300   47.8170 O.2   148  GLY148     -0.2863
     84  N         12.5310   46.4580   51.2790 N.3   169  TYR169     -0.1227
     85  CA        13.6080   46.5170   52.2550 C.3   169  TYR169      0.1736
     86  C         13.6930   45.1490   52.9040 C.2   169  TYR169      0.2596
     87  O         12.7230   44.3900   52.8990 O.2   169  TYR169     -0.2718
     88  CB        13.3180   47.5880   53.3150 C.3   169  TYR169      0.0548
     89  CG        12.0830   47.3290   54.1500 C.ar  169  TYR169     -0.0200
     90  CD1       12.1000   46.4020   55.1960 C.ar  169  TYR169     -0.0009
     91  CD2       10.8910   48.0030   53.8890 C.ar  169  TYR169     -0.0009
     92  CE1       10.9510   46.1530   55.9610 C.ar  169  TYR169      0.0417
     93  CE2        9.7440   47.7630   54.6430 C.ar  169  TYR169      0.0417
     94  CZ         9.7790   46.8380   55.6760 C.ar  169  TYR169      0.1957
     95  OH         8.6410   46.6010   56.4190 O.3   169  TYR169     -0.2866
     96  N         14.8510   44.8280   53.4580 N.am  170  GLY170     -0.1942
     97  CA        14.9990   43.5350   54.0880 C.3   170  GLY170      0.2014
     98  C         16.3720   43.3820   54.6840 C.2   170  GLY170      0.2639
     99  O         16.9660   44.3480   55.1640 O.2   170  GLY170     -0.2714
    100  N         16.8810   42.1580   54.6440 N.am  171  ILE171     -0.1963
    101  CA        18.1880   41.8720   55.1960 C.3   171  ILE171      0.1727
    102  C         18.8220   40.7380   54.4080 C.2   171  ILE171      0.2616
    103  O         18.1510   39.7780   54.0320 O.2   171  ILE171     -0.2715
    104  CB        18.0680   41.4960   56.6980 C.3   171  ILE171      0.0290
    105  CG1       19.4580   41.3370   57.3140 C.3   171  ILE171      0.0022
    106  CG2       17.2480   40.2210   56.8550 C.3   171  ILE171      0.0023
    107  CD1       19.4390   41.1400   58.8150 C.3   171  ILE171      0.0001
    108  N         20.1150   40.8700   54.1370 N.am  172  GLN172     -0.1977
    109  CA        20.8630   39.8630   53.3970 C.3   172  GLN172      0.1601
    110  C         22.1010   39.5210   54.2140 C.2   172  GLN172      0.2287
    111  O         22.9600   40.3760   54.4380 O.2   172  GLN172     -0.2864
    112  CB        21.2890   40.4040   52.0310 C.3   172  GLN172      0.0394
    113  CG        22.0060   39.3870   51.1610 C.3   172  GLN172      0.0908
    114  CD        22.6830   40.0220   49.9630 C.2   172  GLN172      0.2608
    115  OE1       23.6170   40.8090   50.1130 O.2   172  GLN172     -0.2717
    116  NE2       22.2130   39.6870   48.7660 N.am  172  GLN172     -0.0878
    117  N         18.9630   46.2480   54.3970 N.3   177  HIS177     -0.1241
    118  CA        19.0830   47.0430   53.1890 C.3   177  HIS177      0.1621
    119  C         17.7580   47.5780   52.6800 C.2   177  HIS177      0.2264
    120  O         16.6950   47.3060   53.2500 O.2   177  HIS177     -0.2867
    121  CB        19.7090   46.1780   52.0980 C.3   177  HIS177      0.0745
    122  CG        18.9200   44.9400   51.7920 C.ar  177  HIS177      0.0817
    123  ND1       17.6570   44.9800   51.2400 N.ar  177  HIS177     -0.2268
    124  CD2       19.2090   43.6280   51.9730 C.ar  177  HIS177      0.1154
    125  CE1       17.2030   43.7470   51.0930 C.ar  177  HIS177      0.1986
    126  NE2       18.1260   42.9080   51.5300 N.ar  177  HIS177     -0.2212
    127  N         15.7280   47.8380   48.9370 N.3   179  ILE179     -0.1245
    128  CA        15.7650   47.2500   47.6000 C.3   179  ILE179      0.1561
    129  C         15.4990   48.4290   46.6640 C.2   179  ILE179      0.2260
    130  O         14.3990   48.9810   46.6400 O.2   179  ILE179     -0.2867
    131  CB        14.6820   46.1660   47.4280 C.3   179  ILE179      0.0252
    132  CG1       14.8630   45.0830   48.4960 C.3   179  ILE179      0.0019
    133  CG2       14.7960   45.5260   46.0420 C.3   179  ILE179      0.0019
    134  CD1       13.7520   44.0290   48.5210 C.3   179  ILE179      0.0001
    135  N         22.5610   44.7010   39.6970 N.3   190  ASN190     -0.1225
    136  CA        22.0730   43.3320   39.6890 C.3   190  ASN190      0.1785
    137  C         20.7430   43.3470   38.9510 C.2   190  ASN190      0.2597
    138  O         19.6940   43.5270   39.5580 O.2   190  ASN190     -0.2718
    139  CB        21.8740   42.8110   41.1170 C.3   190  ASN190      0.1169
    140  CG        21.3820   41.3700   41.1450 C.2   190  ASN190      0.2627
    141  OD1       21.1980   40.7470   40.0990 O.2   190  ASN190     -0.2716
    142  ND2       21.1630   40.8370   42.3410 N.am  190  ASN190     -0.0877
    143  N         20.7980   43.1750   37.6360 N.am  191  LYS191     -0.1980
    144  CA        19.5960   43.1870   36.8110 C.3   191  LYS191      0.1596
    145  C         18.8380   44.5060   36.9550 C.2   191  LYS191      0.2287
    146  O         17.6020   44.5340   36.9460 O.2   191  LYS191     -0.2864
    147  CB        18.6910   42.0070   37.1790 C.3   191  LYS191      0.0298
    148  CG        19.2700   40.6520   36.7680 C.3   191  LYS191      0.0038
    149  CD        18.4910   39.5070   37.3860 C.3   191  LYS191      0.0206
    150  CE        18.7520   38.2020   36.6490 C.3   191  LYS191      0.1093
    151  NZ        20.2020   37.9700   36.4360 N.3   191  LYS191     -0.1314
    152  N         18.9970   46.5030   39.5970 N.3   193  TYR193     -0.1227
    153  CA        18.7930   46.8250   41.0090 C.3   193  TYR193      0.1736
    154  C         20.0600   46.8940   41.8510 C.2   193  TYR193      0.2595
    155  O         21.1230   46.4140   41.4550 O.2   193  TYR193     -0.2718
    156  CB        17.8730   45.7880   41.6630 C.3   193  TYR193      0.0548
    157  CG        16.4450   45.8280   41.1890 C.ar  193  TYR193     -0.0200
    158  CD1       16.0680   45.2300   39.9890 C.ar  193  TYR193     -0.0009
    159  CD2       15.4680   46.4850   41.9350 C.ar  193  TYR193     -0.0009
    160  CE1       14.7460   45.2860   39.5450 C.ar  193  TYR193      0.0417
    161  CE2       14.1540   46.5480   41.5010 C.ar  193  TYR193      0.0417
    162  CZ        13.8000   45.9460   40.3080 C.ar  193  TYR193      0.1957
    163  OH        12.4960   46.0040   39.8880 O.3   193  TYR193     -0.2866
    164  N         19.9140   47.4880   43.0310 N.am  194  ILE194     -0.1966
    165  CA        20.9960   47.5850   43.9940 C.3   194  ILE194      0.1727
    166  C         20.4020   47.5270   45.4000 C.2   194  ILE194      0.2616
    167  O         19.3430   48.1010   45.6600 O.2   194  ILE194     -0.2715
    168  CB        21.8340   48.8970   43.8240 C.3   194  ILE194      0.0290
    169  CG1       22.9050   48.9720   44.9230 C.3   194  ILE194      0.0022
    170  CG2       20.9250   50.1310   43.8720 C.3   194  ILE194      0.0023
    171  CD1       23.8990   50.1060   44.7510 C.3   194  ILE194      0.0001
    172  N         21.0540   46.7770   46.2860 N.am  195  LEU195     -0.1977
    173  CA        20.6140   46.6910   47.6710 C.3   195  LEU195      0.1596
    174  C         21.4830   47.7040   48.4030 C.2   195  LEU195      0.2287
    175  O         22.7120   47.6000   48.3920 O.2   195  LEU195     -0.2864
    176  CB        20.8500   45.2910   48.2360 C.3   195  LEU195      0.0297
    177  CG        20.1560   44.1490   47.4920 C.3   195  LEU195      0.0022
    178  CD1       20.4680   42.8280   48.1910 C.3   195  LEU195      0.0001
    179  CD2       18.6550   44.3990   47.4520 C.3   195  LEU195      0.0001
@<TRIPOS>BOND
     1   151   150    1
     2   150   149    1
     3   148   147    1
     4   148   149    1
     5   144   145    1
     6   144   147    1
     7   144   143    1
     8   146   145    2
     9   143   137   am
    10   137   138    2
    11   137   136    1
    12   160   158   ar
    13   160   162   ar
    14   152   153    1
    15   136   135    1
    16   136   139    1
    17   163   162    1
    18   158   157   ar
    19   141   140    2
    20    62    61    2
    21   162   161   ar
    22   153   156    1
    23   153   154    1
    24   139   140    1
    25    59    60    1
    26   140   142   am
    27   157   156    1
    28   157   159   ar
    29    61    60    1
    30   155   154    2
    31   161   159   ar
    32   154   164   am
    33    60    63    1
    34    33    32    2
    35    36    35    1
    36    36    37    1
    37    35    34    1
    38    34    31    1
    39    63    64    1
    40    65    67   ar
    41    65    64   ar
    42    39    38    1
    43    53    52    2
    44   164   165    1
    45    79    78    1
    46    31    32    1
    47    31    30    1
    48    32    41   am
    49    52    51    1
    50    71    72    1
    51    67    69   ar
    52    64    66   ar
    53    37    38    2
    54    38    40    1
    55   168   170    1
    56   168   165    1
    57   168   169    1
    58   165   166    1
    59    78    77    1
    60    77    76    1
    61    75    72    1
    62    75    76    1
    63    41    42    1
    64    72    73    1
    65    51    50    1
    66    51    54    1
    67    50    43   am
    68    43    42    1
    69    43    44    2
    70    42    45    1
    71   171   169    1
    72    69    70    1
    73    69    68   ar
    74    66    68   ar
    75   166   167    2
    76   166   172   am
    77    54    55    1
    78    28    27   ar
    79    73    74    2
    80    73    80   am
    81    45    46    1
    82    46    47    1
    83   133   131    1
    84   172   173    1
    85    29    27   ar
    86   130   129    2
    87   129   128    1
    88    27    26    1
    89    80    81    1
    90    25    24    2
    91    55    56    1
    92    48    47    1
    93    48    49    1
    94    24    23    1
    95   131   128    1
    96   131   132    1
    97   179   177    1
    98   177   178    1
    99   177   176    1
   100   128   127    1
   101   173   176    1
   102   173   174    1
   103    83    82    2
   104    26    23    1
   105    56    57    1
   106    81    82    1
   107    23    22    1
   108   175   174    2
   109    57    58    1
   110   132   134    1
   111   116   114   am
   112    22    17   am
   113   114   115    2
   114   114   113    1
   115    18    17    2
   116    17    16    1
   117   125   123   ar
   118   125   126   ar
   119   113   112    1
   120   123   122   ar
   121    84    85    1
   122    21    19    1
   123   126   124   ar
   124   122   124   ar
   125   122   121    1
   126    16    19    1
   127    16    15    1
   128   112   109    1
   129   121   118    1
   130    20    19    1
   131    85    86    1
   132    85    88    1
   133   119   118    1
   134   119   120    2
   135    87    86    2
   136    86    96   am
   137    15    11   am
   138   118   117    1
   139    88    89    1
   140   109   108    1
   141   109   110    1
   142    96    97    1
   143    91    89   ar
   144    91    93   ar
   145   103   102    2
   146    97    98    1
   147   108   102   am
   148    11    12    2
   149    11    10    1
   150    89    90   ar
   151   110   111    2
   152   102   101    1
   153    14    13    1
   154    93    94   ar
   155   100    98   am
   156   100   101    1
   157    13    10    1
   158    98    99    2
   159    10     9    1
   160   101   104    1
   161    90    92   ar
   162    94    92   ar
   163    94    95    1
   164     9     3   am
   165   104   106    1
   166   104   105    1
   167     4     3    2
   168   105   107    1
   169     3     2    1
   170     1     2    1
   171     2     5    1
   172     5     6    1
   173     6     8   ar
   174     6     7   ar
