@<TRIPOS>MOLECULE
tmp/3c9hB00.pdb
 136 128 0 0 0
SMALL
GASTEIGER

@<TRIPOS>ATOM
      1  N         26.1310   -3.9120   17.2140 N.3    27  SER27      -0.1217
      2  CA        26.4850   -4.3930   15.8990 C.3    27  SER27       0.1889
      3  C         26.1460   -3.3490   14.8010 C.2    27  SER27       0.2288
      4  O         26.5090   -3.5190   13.6520 O.2    27  SER27      -0.2866
      5  CB        25.8040   -5.7330   15.6190 C.3    27  SER27       0.2089
      6  OG        24.4120   -5.6180   15.3570 O.3    27  SER27      -0.2183
      7  N         26.8360   -0.5130   12.5860 N.3    29  ASP29      -0.1239
      8  CA        28.1030    0.0680   12.0890 C.3    29  ASP29       0.1674
      9  C         28.2030    1.4970   12.5750 C.2    29  ASP29       0.2266
     10  O         27.2680    2.2620   12.4270 O.2    29  ASP29      -0.2867
     11  CB        28.1360    0.0400   10.5670 C.3    29  ASP29       0.1410
     12  CG        28.3080   -1.3540   10.0090 C.2    29  ASP29       0.3668
     13  OD1       28.2260   -2.3290   10.7770 O.co2  29  ASP29      -0.2456
     14  OD2       28.5320   -1.4810    8.7890 O.co2  29  ASP29      -0.2456
     15  N         31.5510   -1.1350   18.5340 N.3    53  ASP53      -0.1225
     16  CA        30.9850   -1.7300   17.3360 C.3    53  ASP53       0.1805
     17  C         31.6810   -3.0730   17.1460 C.2    53  ASP53       0.2598
     18  O         32.9100   -3.1440   16.9550 O.2    53  ASP53      -0.2718
     19  CB        31.2560   -0.7650   16.1650 C.3    53  ASP53       0.1424
     20  CG        30.8420   -1.2940   14.7980 C.2    53  ASP53       0.3668
     21  OD1       30.3390   -2.4260   14.6870 O.co2  53  ASP53      -0.2456
     22  OD2       31.0260   -0.5270   13.8120 O.co2  53  ASP53      -0.2456
     23  N         30.9080   -4.1420   17.1850 N.am   54  MET54      -0.1965
     24  CA        31.4690   -5.4740   17.1580 C.3    54  MET54       0.1736
     25  C         30.5000   -6.4640   16.5300 C.2    54  MET54       0.2616
     26  O         29.3220   -6.1720   16.3990 O.2    54  MET54      -0.2715
     27  CB        31.8370   -5.8730   18.6080 C.3    54  MET54       0.0427
     28  CG        30.6880   -6.2130   19.5730 C.3    54  MET54       0.0599
     29  SD        31.2190   -6.4960   21.3360 S.3    54  MET54      -0.1393
     30  CE        31.5650   -4.8160   21.8540 C.3    54  MET54       0.0692
     31  N         30.9930   -7.6570   16.1840 N.am   55  LEU55      -0.1963
     32  CA        30.1450   -8.6950   15.6300 C.3    55  LEU55       0.1728
     33  C         29.1080   -9.1290   16.6570 C.2    55  LEU55       0.2616
     34  O         29.3620   -9.1310   17.8560 O.2    55  LEU55      -0.2715
     35  CB        30.9760   -9.8760   15.1440 C.3    55  LEU55       0.0311
     36  CG        31.8400   -9.6490   13.8780 C.3    55  LEU55       0.0022
     37  CD1       32.7100  -10.8580   13.6450 C.3    55  LEU55       0.0001
     38  CD2       30.9690   -9.3360   12.6200 C.3    55  LEU55       0.0001
     39  N         27.9350   -9.4940   16.1750 N.am   56  THR56      -0.1951
     40  CA        26.8520   -9.9450   17.0350 C.3    56  THR56       0.1897
     41  C         27.2760  -11.0960   17.9720 C.2    56  THR56       0.2313
     42  O         26.9560  -11.0680   19.1570 O.2    56  THR56      -0.2863
     43  CB        25.5950  -10.3320   16.2030 C.3    56  THR56       0.1794
     44  OG1       25.9490  -11.3060   15.2010 O.3    56  THR56      -0.2208
     45  CG2       24.9680   -9.0980   15.5630 C.3    56  THR56       0.0378
     46  N         21.5890   -7.3200   16.0140 N.3    80  SER80      -0.1217
     47  CA        20.7440   -7.9190   14.9940 C.3    80  SER80       0.1889
     48  C         20.6000   -9.4270   15.1050 C.2    80  SER80       0.2288
     49  O         19.7630   -9.9890   14.4150 O.2    80  SER80      -0.2866
     50  CB        21.2690   -7.5590   13.6020 C.3    80  SER80       0.2089
     51  OG        22.6580   -7.8470   13.4690 O.3    80  SER80      -0.2183
     52  N         26.6950  -13.8270    3.6560 N.3   162  TYR162     -0.1241
     53  CA        27.2180  -13.9490    5.0010 C.3   162  TYR162      0.1605
     54  C         27.7950  -15.3370    5.3060 C.2   162  TYR162      0.2264
     55  O         27.2010  -16.3670    4.9820 O.2   162  TYR162     -0.2867
     56  CB        26.1150  -13.7420    6.0030 C.3   162  TYR162      0.0534
     57  CG        25.8370  -12.3360    6.3920 C.ar  162  TYR162     -0.0201
     58  CD1       24.6210  -11.7380    6.0780 C.ar  162  TYR162     -0.0009
     59  CD2       26.7620  -11.6180    7.1200 C.ar  162  TYR162     -0.0009
     60  CE1       24.3280  -10.4200    6.5050 C.ar  162  TYR162      0.0417
     61  CE2       26.4780  -10.3250    7.5660 C.ar  162  TYR162      0.0417
     62  CZ        25.2640   -9.7240    7.2470 C.ar  162  TYR162      0.1957
     63  OH        24.9970   -8.4310    7.6790 O.3   162  TYR162     -0.2866
     64  N         28.9040  -14.7120   11.5080 N.3   167  SER167     -0.1202
     65  CA        27.8880  -13.6750   11.6210 C.3   167  SER167      0.2020
     66  C         26.5970  -14.2290   12.2130 C.2   167  SER167      0.2619
     67  O         25.9260  -15.0960   11.6030 O.2   167  SER167     -0.2717
     68  CB        27.5670  -13.0800   10.2610 C.3   167  SER167      0.2103
     69  OG        26.4400  -12.2270   10.3890 O.3   167  SER167     -0.2182
     70  N         26.2550  -13.7340   13.4000 N.am  168  GLY168     -0.1942
     71  CA        25.0180  -14.1190   14.0410 C.3   168  GLY168      0.2014
     72  C         23.7890  -13.7000   13.2410 C.2   168  GLY168      0.2638
     73  O         22.8210  -14.4450   13.1960 O.2   168  GLY168     -0.2714
     74  N         23.7980  -12.5180   12.6210 N.am  169  VAL169     -0.1977
     75  CA        22.6610  -12.1460   11.7560 C.3   169  VAL169      0.1596
     76  C         22.5760  -13.0160   10.5100 C.2   169  VAL169      0.2287
     77  O         21.4690  -13.3940   10.0960 O.2   169  VAL169     -0.2864
     78  CB        22.5710  -10.6300   11.4040 C.3   169  VAL169      0.0276
     79  CG1       23.4800  -10.2640   10.2420 C.3   169  VAL169      0.0022
     80  CG2       21.1080  -10.2870   11.1040 C.3   169  VAL169      0.0022
     81  N         31.7900  -11.8280    7.0960 N.3   200  SER200     -0.1202
     82  CA        31.1620  -11.6670    8.3960 C.3   200  SER200      0.2020
     83  C         30.2900  -10.4300    8.4350 C.2   200  SER200      0.2619
     84  O         29.5100  -10.3000    9.3530 O.2   200  SER200     -0.2717
     85  CB        32.2370  -11.6020    9.4870 C.3   200  SER200      0.2103
     86  OG        33.0790  -10.4670    9.3050 O.3   200  SER200     -0.2182
     87  N         30.4330   -9.5210    7.4540 N.am  201  THR201     -0.1938
     88  CA        29.7240   -8.2350    7.4380 C.3   201  THR201      0.2028
     89  C         29.1100   -7.8880    6.0760 C.2   201  THR201      0.2643
     90  O         29.6540   -8.2210    5.0280 O.2   201  THR201     -0.2714
     91  CB        30.6160   -7.0420    7.8310 C.3   201  THR201      0.1808
     92  OG1       31.6480   -6.8600    6.8460 O.3   201  THR201     -0.2208
     93  CG2       31.2310   -7.2160    9.2510 C.3   201  THR201      0.0379
     94  N         27.9900   -7.1780    6.1410 N.am  202  SER202     -0.1935
     95  CA        27.3020   -6.6560    4.9850 C.3   202  SER202      0.2055
     96  C         28.1890   -5.6420    4.3080 C.2   202  SER202      0.2643
     97  O         28.3060   -5.6630    3.0910 O.2   202  SER202     -0.2714
     98  CB        25.9250   -6.0370    5.3420 C.3   202  SER202      0.2130
     99  OG        24.8670   -6.9960    5.2980 O.3   202  SER202     -0.2179
    100  N         28.8620   -4.7880    5.0720 N.am  203  SER203     -0.1949
    101  CA        29.7090   -3.7440    4.4410 C.3   203  SER203      0.1924
    102  C         30.8190   -4.3160    3.5560 C.2   203  SER203      0.2314
    103  O         31.1170   -3.7390    2.5160 O.2   203  SER203     -0.2863
    104  CB        30.2750   -2.7660    5.4700 C.3   203  SER203      0.2116
    105  OG        31.0100   -3.4620    6.4570 O.3   203  SER203     -0.2180
    106  N         21.9500   -6.8390    4.5190 N.3   221  LEU221     -0.1245
    107  CA        21.0860   -5.8910    5.2160 C.3   221  LEU221      0.1561
    108  C         20.6280   -4.7670    4.2780 C.2   221  LEU221      0.2260
    109  O         21.4350   -4.0150    3.7690 O.2   221  LEU221     -0.2867
    110  CB        21.7660   -5.3070    6.4580 C.3   221  LEU221      0.0270
    111  CG        22.0900   -6.2760    7.6030 C.3   221  LEU221      0.0019
    112  CD1       22.6970   -5.5050    8.7830 C.3   221  LEU221      0.0001
    113  CD2       20.8310   -7.0300    8.0030 C.3   221  LEU221      0.0001
    114  N         21.6660   -1.1400    5.2900 N.3   224  TYR224     -0.1241
    115  CA        23.0380   -0.8570    4.8760 C.3   224  TYR224      0.1605
    116  C         23.1620   -0.7260    3.3530 C.2   224  TYR224      0.2264
    117  O         23.8640    0.1530    2.8900 O.2   224  TYR224     -0.2867
    118  CB        24.0110   -1.9100    5.3720 C.3   224  TYR224      0.0534
    119  CG        24.2130   -1.9780    6.8680 C.ar  224  TYR224     -0.0201
    120  CD1       23.4730   -1.2050    7.7610 C.ar  224  TYR224     -0.0009
    121  CD2       25.1480   -2.8430    7.3860 C.ar  224  TYR224     -0.0009
    122  CE1       23.6930   -1.3050    9.1390 C.ar  224  TYR224      0.0417
    123  CE2       25.3470   -2.9600    8.7290 C.ar  224  TYR224      0.0417
    124  CZ        24.6380   -2.1890    9.6160 C.ar  224  TYR224      0.1957
    125  OH        24.8620   -2.3440   10.9790 O.3   224  TYR224     -0.2866
    126  N         16.5920   -5.3060   15.0910 N.3   249  ARG249     -0.1245
    127  CA        17.6040   -5.1160   16.1380 C.3   249  ARG249      0.1563
    128  C         16.9500   -5.0460   17.5180 C.2   249  ARG249      0.2260
    129  O         15.9840   -4.3020   17.7220 O.2   249  ARG249     -0.2867
    130  CB        18.4210   -3.8320   15.9150 C.3   249  ARG249      0.0307
    131  CG        19.2160   -3.8590   14.6070 C.3   249  ARG249      0.0489
    132  CD        19.9330   -2.5460   14.2960 C.3   249  ARG249      0.2205
    133  NE        20.3340   -2.5880   12.9020 N.pl3 249  ARG249     -0.0865
    134  CZ        21.4860   -3.0830   12.4700 C.cat 249  ARG249      0.5346
    135  NH1       22.4490   -3.4800   13.3180 N.pl3 249  ARG249      0.1354
    136  NH2       21.6950   -3.1610   11.1780 N.pl3 249  ARG249      0.1354
@<TRIPOS>BOND
     1   103   102    2
     2   117   116    2
     3    97    96    2
     4   116   115    1
     5   102   101    1
     6    52    53    1
     7   109   108    2
     8   108   107    1
     9    96    95    1
    10    96   100   am
    11   101   100    1
    12   101   104    1
    13   106   107    1
    14   115   114    1
    15   115   118    1
    16    55    54    2
    17    95    98    1
    18    95    94    1
    19    53    54    1
    20    53    56    1
    21    90    89    2
    22   107   110    1
    23    99    98    1
    24   118   119    1
    25   104   105    1
    26    56    57    1
    27    89    94   am
    28    89    88    1
    29    58    57   ar
    30    58    60   ar
    31    57    59   ar
    32   110   111    1
    33    60    62   ar
    34    92    91    1
    35   119   121   ar
    36   119   120   ar
    37    81    82    1
    38    59    61   ar
    39    62    61   ar
    40    62    63    1
    41   121   123   ar
    42    88    87    1
    43    88    91    1
    44    87    83   am
    45   111   113    1
    46   111   112    1
    47   120   122   ar
    48    91    93    1
    49    82    83    1
    50    82    85    1
    51    83    84    2
    52   123   124   ar
    53    14    12   ar
    54   122   124   ar
    55    86    85    1
    56   124   125    1
    57    12    11    1
    58    12    13   ar
    59    77    76    2
    60    79    78    1
    61    68    69    1
    62    68    65    1
    63    76    75    1
    64    11     8    1
    65    80    78    1
    66   136   134    1
    67    78    75    1
    68    64    65    1
    69    67    66    2
    70    65    66    1
    71    75    74    1
    72     8     9    1
    73     8     7    1
    74    66    70   am
    75    10     9    2
    76   134   133    2
    77   134   135    1
    78    38    36    1
    79    74    72   am
    80   133   132    1
    81    73    72    2
    82    72    71    1
    83    70    71    1
    84    51    50    1
    85    50    47    1
    86    37    36    1
    87     4     3    2
    88    22    20   ar
    89    36    35    1
    90   132   131    1
    91    49    48    2
    92   131   130    1
    93    21    20   ar
    94    20    19    1
    95     3     2    1
    96    47    48    1
    97    47    46    1
    98   126   127    1
    99    35    32    1
   100    44    43    1
   101     6     5    1
   102    45    43    1
   103     5     2    1
   104    32    31    1
   105    32    33    1
   106     2     1    1
   107   130   127    1
   108   127   128    1
   109    19    16    1
   110    39    33   am
   111    39    40    1
   112    31    25   am
   113    43    40    1
   114    26    25    2
   115    25    24    1
   116    33    34    2
   117    18    17    2
   118    40    41    1
   119    17    23   am
   120    17    16    1
   121    24    23    1
   122    24    27    1
   123    16    15    1
   124   128   129    2
   125    41    42    2
   126    27    28    1
   127    28    29    1
   128    29    30    1
