@<TRIPOS>MOLECULE
tmp/3c9nA00.pdb
 175 169 0 0 0
SMALL
GASTEIGER

@<TRIPOS>ATOM
      1  N         51.4700   86.4650   39.2240 N.3    69  THR69      -0.1203
      2  CA        50.2530   87.2560   39.3060 C.3    69  THR69       0.1994
      3  C         49.8170   87.6680   37.8970 C.2    69  THR69       0.2617
      4  O         48.6340   87.5810   37.5620 O.2    69  THR69      -0.2717
      5  CB        50.4200   88.4780   40.2300 C.3    69  THR69       0.1784
      6  OG1       50.8890   88.0590   41.5240 O.3    69  THR69      -0.2211
      7  CG2       49.1150   89.2140   40.4030 C.3    69  THR69       0.0376
      8  N         50.7710   88.1000   37.0670 N.am   70  ASN70      -0.1974
      9  CA        50.4650   88.3810   35.6600 C.3    70  ASN70       0.1688
     10  C         49.8760   87.1980   34.9070 C.2    70  ASN70       0.2292
     11  O         49.0020   87.3640   34.0550 O.2    70  ASN70      -0.2864
     12  CB        51.7160   88.8510   34.9120 C.3    70  ASN70       0.1181
     13  CG        52.0860   90.2960   35.2300 C.2    70  ASN70       0.2629
     14  OD1       53.2480   90.7080   35.0690 O.2    70  ASN70      -0.2716
     15  ND2       51.1090   91.0720   35.6110 N.am   70  ASN70      -0.0877
     16  N         46.2990   87.2230   35.8910 N.3    73  THR73      -0.1203
     17  CA        45.5580   88.4000   35.4160 C.3    73  THR73       0.1994
     18  C         45.3920   88.4160   33.8880 C.2    73  THR73       0.2617
     19  O         44.3200   88.7790   33.3870 O.2    73  THR73      -0.2717
     20  CB        46.2000   89.6820   35.9210 C.3    73  THR73       0.1784
     21  OG1       46.0990   89.7000   37.3550 O.3    73  THR73      -0.2211
     22  CG2       45.4970   90.9230   35.3250 C.3    73  THR73       0.0376
     23  N         46.4320   87.9970   33.1570 N.am   74  TYR74      -0.1975
     24  CA        46.3370   87.8940   31.6780 C.3    74  TYR74       0.1639
     25  C         45.3050   86.8910   31.2250 C.2    74  TYR74       0.2290
     26  O         44.6310   87.0890   30.2320 O.2    74  TYR74      -0.2864
     27  CB        47.7250   87.6710   30.9880 C.3    74  TYR74       0.0560
     28  CG        48.3990   89.0090   30.8010 C.ar   74  TYR74      -0.0198
     29  CD1       49.0010   89.6660   31.8760 C.ar   74  TYR74      -0.0009
     30  CD2       48.3200   89.6790   29.5710 C.ar   74  TYR74      -0.0009
     31  CE1       49.5540   90.9310   31.7270 C.ar   74  TYR74       0.0417
     32  CE2       48.8760   90.9550   29.4150 C.ar   74  TYR74       0.0417
     33  CZ        49.4740   91.5640   30.4930 C.ar   74  TYR74       0.1957
     34  OH        49.9980   92.8270   30.3140 O.3    74  TYR74      -0.2866
     35  N         42.5900   86.2560   32.8550 N.3    76  GLU76      -0.1231
     36  CA        41.3370   86.9870   33.1270 C.3    76  GLU76       0.1699
     37  C         41.1060   88.0330   32.0370 C.2    76  GLU76       0.2592
     38  O         40.0270   88.1020   31.4630 O.2    76  GLU76      -0.2718
     39  CB        41.3880   87.6340   34.5100 C.3    76  GLU76       0.0402
     40  CG        40.0240   88.1540   35.0640 C.3    76  GLU76       0.1161
     41  CD        40.1860   88.9990   36.3740 C.2    76  GLU76       0.3649
     42  OE1       41.2860   88.9530   37.0120 O.co2  76  GLU76      -0.2457
     43  OE2       39.2200   89.7460   36.7150 O.co2  76  GLU76      -0.2457
     44  N         42.1370   88.8280   31.7230 N.am   77  SER77      -0.1952
     45  CA        42.0390   89.7570   30.5820 C.3    77  SER77       0.1924
     46  C         41.6360   89.0790   29.2820 C.2    77  SER77       0.2314
     47  O         40.7880   89.6060   28.5550 O.2    77  SER77      -0.2863
     48  CB        43.3470   90.5260   30.3770 C.3    77  SER77       0.2116
     49  OG        43.6350   91.2750   31.5670 O.3    77  SER77      -0.2180
     50  N         38.0410   88.3250   29.2690 N.3    80  ASN80      -0.1225
     51  CA        37.3130   89.6000   29.1850 C.3    80  ASN80       0.1785
     52  C         37.2660   90.0810   27.7830 C.2    80  ASN80       0.2597
     53  O         36.1910   90.4660   27.3010 O.2    80  ASN80      -0.2718
     54  CB        37.9130   90.6770   30.1150 C.3    80  ASN80       0.1169
     55  CG        37.6270   90.3980   31.5900 C.2    80  ASN80       0.2627
     56  OD1       36.8530   89.4980   31.9000 O.2    80  ASN80      -0.2716
     57  ND2       38.2800   91.1210   32.4970 N.am   80  ASN80      -0.0877
     58  N         38.4360   90.0680   27.1060 N.am   81  LEU81      -0.1980
     59  CA        38.5140   90.5150   25.7080 C.3    81  LEU81       0.1596
     60  C         37.7600   89.6290   24.7680 C.2    81  LEU81       0.2287
     61  O         37.1390   90.1160   23.8220 O.2    81  LEU81      -0.2864
     62  CB        39.9630   90.7320   25.2330 C.3    81  LEU81       0.0297
     63  CG        40.4850   92.1720   25.4720 C.3    81  LEU81       0.0022
     64  CD1       40.5560   92.5750   26.9530 C.3    81  LEU81       0.0001
     65  CD2       41.8510   92.3970   24.8290 C.3    81  LEU81       0.0001
     66  N         34.4800   91.0830   25.0450 N.3    84  TYR84      -0.1241
     67  CA        34.3580   92.4140   24.4310 C.3    84  TYR84       0.1605
     68  C         34.1840   92.3650   22.9250 C.2    84  TYR84       0.2264
     69  O         33.6330   93.2930   22.3470 O.2    84  TYR84      -0.2867
     70  CB        35.5680   93.3390   24.7500 C.3    84  TYR84       0.0534
     71  CG        35.8900   93.6110   26.2040 C.ar   84  TYR84      -0.0201
     72  CD1       34.9580   93.4010   27.2350 C.ar   84  TYR84      -0.0009
     73  CD2       37.1410   94.1390   26.5340 C.ar   84  TYR84      -0.0009
     74  CE1       35.2930   93.6730   28.5800 C.ar   84  TYR84       0.0417
     75  CE2       37.4710   94.4280   27.8510 C.ar   84  TYR84       0.0417
     76  CZ        36.5600   94.1790   28.8760 C.ar   84  TYR84       0.1957
     77  OH        36.9260   94.4370   30.1840 O.3    84  TYR84      -0.2866
     78  N         47.2970   88.2390   23.6130 N.3    95  LEU95      -0.1245
     79  CA        47.3580   89.5700   24.1670 C.3    95  LEU95       0.1561
     80  C         48.8300   89.8330   24.3790 C.2    95  LEU95       0.2260
     81  O         49.5270   88.9940   24.9360 O.2    95  LEU95      -0.2867
     82  CB        46.6670   89.6170   25.5200 C.3    95  LEU95       0.0270
     83  CG        46.4220   90.8910   26.3040 C.3    95  LEU95       0.0019
     84  CD1       45.9320   92.0140   25.3910 C.3    95  LEU95       0.0001
     85  CD2       45.3860   90.5390   27.4200 C.3    95  LEU95       0.0001
     86  N         51.7870   92.9190   25.6020 N.3    97  ARG97      -0.1245
     87  CA        52.0550   94.2220   26.1660 C.3    97  ARG97       0.1563
     88  C         53.5350   94.5010   26.0490 C.2    97  ARG97       0.2260
     89  O         54.3500   93.5910   26.1680 O.2    97  ARG97      -0.2867
     90  CB        51.6870   94.2430   27.6610 C.3    97  ARG97       0.0307
     91  CG        51.5220   95.6740   28.1940 C.3    97  ARG97       0.0489
     92  CD        51.0080   95.6590   29.6450 C.3    97  ARG97       0.2205
     93  NE        50.5410   97.0020   30.0140 N.pl3  97  ARG97      -0.0865
     94  CZ        49.5410   97.2400   30.8570 C.cat  97  ARG97       0.5346
     95  NH1       48.8950   96.2250   31.4590 N.pl3  97  ARG97       0.1354
     96  NH2       49.1990   98.4840   31.1070 N.pl3  97  ARG97       0.1354
     97  N         49.4310   97.9580   24.5970 N.3   116  SER116     -0.1217
     98  CA        48.9090   96.5950   24.4420 C.3   116  SER116      0.1889
     99  C         48.2440   96.3720   23.1010 C.2   116  SER116      0.2288
    100  O         47.6980   97.3130   22.4750 O.2   116  SER116     -0.2866
    101  CB        47.8750   96.2960   25.5640 C.3   116  SER116      0.2089
    102  OG        48.4820   96.4810   26.8280 O.3   116  SER116     -0.2183
    103  N         45.4780   97.9130   20.7470 N.3   123  TYR123     -0.1227
    104  CA        44.3000   97.7970   21.5870 C.3   123  TYR123      0.1736
    105  C         44.1990   99.0460   22.4780 C.2   123  TYR123      0.2595
    106  O         43.2470   99.8180   22.3440 O.2   123  TYR123     -0.2718
    107  CB        44.3430   96.4950   22.4040 C.3   123  TYR123      0.0548
    108  CG        43.1390   96.3140   23.3300 C.ar  123  TYR123     -0.0200
    109  CD1       41.9090   95.9130   22.8180 C.ar  123  TYR123     -0.0009
    110  CD2       43.2500   96.5430   24.6980 C.ar  123  TYR123     -0.0009
    111  CE1       40.7740   95.7680   23.6600 C.ar  123  TYR123      0.0417
    112  CE2       42.1190   96.4170   25.5700 C.ar  123  TYR123      0.0417
    113  CZ        40.8980   95.9950   25.0120 C.ar  123  TYR123      0.1957
    114  OH        39.7850   95.8200   25.7980 O.3   123  TYR123     -0.2866
    115  N         45.1770   99.2530   23.3600 N.am  124  ILE124     -0.1980
    116  CA        45.2380  100.4630   24.2320 C.3   124  ILE124      0.1595
    117  C         46.6830  100.8540   24.5280 C.2   124  ILE124      0.2287
    118  O         47.5450   99.9710   24.7330 O.2   124  ILE124     -0.2864
    119  CB        44.4390  100.2620   25.5520 C.3   124  ILE124      0.0276
    120  CG1       44.0510  101.6060   26.2210 C.3   124  ILE124      0.0022
    121  CG2       45.1330   99.2460   26.5000 C.3   124  ILE124      0.0022
    122  CD1       43.2810  101.4220   27.5710 C.3   124  ILE124      0.0001
    123  N         38.1910   98.7560   28.7550 N.3   143  THR143     -0.1218
    124  CA        39.4440   98.6860   29.5250 C.3   143  THR143      0.1862
    125  C         39.8540  100.0860   30.0040 C.2   143  THR143      0.2287
    126  O         40.2480  100.2600   31.1490 O.2   143  THR143     -0.2866
    127  CB        40.5750   98.0530   28.6890 C.3   143  THR143      0.1770
    128  OG1       40.1220   96.7760   28.2260 O.3   143  THR143     -0.2211
    129  CG2       41.8130   97.8360   29.5700 C.3   143  THR143      0.0375
    130  N         37.8820  101.0630   33.0780 N.3   146  LYS146     -0.1231
    131  CA        38.4110  100.3040   34.2360 C.3   146  LYS146      0.1693
    132  C         39.7130  100.8390   34.7750 C.2   146  LYS146      0.2592
    133  O         39.9180  100.9720   35.9900 O.2   146  LYS146     -0.2718
    134  CB        38.7180   98.8510   33.8600 C.3   146  LYS146      0.0285
    135  CG        37.5770   97.9900   33.6180 C.3   146  LYS146      0.0035
    136  CD        38.0200   96.5350   33.7130 C.3   146  LYS146      0.0206
    137  CE        36.9410   95.6760   33.0970 C.3   146  LYS146      0.1093
    138  NZ        37.2930   94.2350   33.1180 N.3   146  LYS146     -0.1314
    139  N         40.6380  101.0950   33.8630 N.am  147  TRP147     -0.1976
    140  CA        41.9520  101.6240   34.2570 C.3   147  TRP147      0.1640
    141  C         41.9070  103.0570   34.8230 C.2   147  TRP147      0.2290
    142  O         42.5970  103.3410   35.7900 O.2   147  TRP147     -0.2864
    143  CB        42.8940  101.5350   33.0570 C.3   147  TRP147      0.0576
    144  CG        43.3280  100.1170   32.8270 C.ar  147  TRP147      0.0006
    145  CD1       42.8800   98.9800   33.4660 C.ar  147  TRP147      0.0946
    146  CD2       44.2550   99.6800   31.8480 C.ar  147  TRP147      0.0152
    147  NE1       43.5130   97.8700   32.9540 N.ar  147  TRP147     -0.2442
    148  CE2       44.3760   98.2750   31.9700 C.ar  147  TRP147      0.0810
    149  CE3       45.0200  100.3430   30.8940 C.ar  147  TRP147      0.0012
    150  CZ2       45.2400   97.5210   31.1420 C.ar  147  TRP147      0.0191
    151  CZ3       45.8810   99.5890   30.0780 C.ar  147  TRP147      0.0001
    152  CH2       45.9730   98.2030   30.2120 C.ar  147  TRP147      0.0015
    153  N         45.1780  103.7060   37.0760 N.3   152  GLU152     -0.1245
    154  CA        46.3280  103.0330   36.4580 C.3   152  GLU152      0.1567
    155  C         47.3820  103.9800   35.9120 C.2   152  GLU152      0.2260
    156  O         48.5790  103.7150   36.0770 O.2   152  GLU152     -0.2867
    157  CB        45.8720  102.0330   35.3940 C.3   152  GLU152      0.0388
    158  CG        45.2890  100.7740   36.0220 C.3   152  GLU152      0.1160
    159  CD        46.3860   99.9050   36.6050 C.2   152  GLU152      0.3649
    160  OE1       47.0870   99.2440   35.8190 O.co2 152  GLU152     -0.2457
    161  OE2       46.6000   99.9130   37.8270 O.co2 152  GLU152     -0.2457
    162  N         51.4880  104.0360   36.4570 N.3   156  TRP156     -0.1241
    163  CA        52.4490  103.9520   35.3610 C.3   156  TRP156      0.1605
    164  C         53.4010  105.1320   35.3990 C.2   156  TRP156      0.2264
    165  O         54.6120  104.9530   35.3330 O.2   156  TRP156     -0.2867
    166  CB        51.7160  103.8520   33.9950 C.3   156  TRP156      0.0550
    167  CG        51.3230  102.4770   33.7300 C.ar  156  TRP156      0.0003
    168  CD1       50.0710  101.9440   33.7380 C.ar  156  TRP156      0.0946
    169  CD2       52.2190  101.4060   33.3550 C.ar  156  TRP156      0.0152
    170  NE1       50.1430  100.5710   33.4350 N.ar  156  TRP156     -0.2442
    171  CE2       51.4480  100.2400   33.1940 C.ar  156  TRP156      0.0810
    172  CE3       53.6050  101.3300   33.1820 C.ar  156  TRP156      0.0012
    173  CZ2       52.0210   98.9920   32.8520 C.ar  156  TRP156      0.0191
    174  CZ3       54.1770  100.0740   32.8330 C.ar  156  TRP156      0.0001
    175  CH2       53.3820   98.9470   32.6730 C.ar  156  TRP156      0.0015
@<TRIPOS>BOND
     1   103   104    1
     2   104   107    1
     3   104   105    1
     4   106   105    2
     5    69    68    2
     6   107   108    1
     7   100    99    2
     8   105   115   am
     9   109   108   ar
    10   109   111   ar
    11    68    67    1
    12    99    98    1
    13   108   110   ar
    14   115   116    1
    15    78    79    1
    16   111   113   ar
    17    61    60    2
    18    79    80    1
    19    79    82    1
    20   116   117    1
    21   116   119    1
    22    80    81    2
    23    67    70    1
    24    67    66    1
    25    98    97    1
    26    98   101    1
    27   117   118    2
    28   110   112   ar
    29    70    71    1
    30    60    59    1
    31    65    63    1
    32   113   112   ar
    33   113   114    1
    34    62    63    1
    35    62    59    1
    36    84    83    1
    37    63    64    1
    38    82    83    1
    39   119   120    1
    40   119   121    1
    41   101   102    1
    42    86    87    1
    43    59    58    1
    44    88    87    1
    45    88    89    2
    46    87    90    1
    47    71    73   ar
    48    71    72   ar
    49   120   122    1
    50    83    85    1
    51    73    75   ar
    52    58    52   am
    53    72    74   ar
    54    53    52    2
    55    90    91    1
    56    52    51    1
    57    75    76   ar
    58    91    92    1
    59   128   127    1
    60    47    46    2
    61    74    76   ar
    62   127   124    1
    63   127   129    1
    64   123   124    1
    65    76    77    1
    66    51    50    1
    67    51    54    1
    68    46    45    1
    69    32    30   ar
    70    32    33   ar
    71   124   125    1
    72    30    28   ar
    73    92    93    1
    74   125   126    2
    75    93    94    2
    76   151   152   ar
    77   151   149   ar
    78    54    55    1
    79   152   150   ar
    80    26    25    2
    81    34    33    1
    82    48    45    1
    83    48    49    1
    84    33    31   ar
    85    45    44    1
    86    28    27    1
    87    28    29   ar
    88    94    96    1
    89    94    95    1
    90   149   146   ar
    91    27    24    1
    92   150   148   ar
    93    25    24    1
    94    38    37    2
    95    55    56    2
    96    55    57   am
    97    24    23    1
    98    44    37   am
    99    31    29   ar
   100   146   148   ar
   101   146   144   ar
   102   148   147   ar
   103    37    36    1
   104   175   174   ar
   105   175   173   ar
   106   144   143    1
   107   144   145   ar
   108   174   172   ar
   109   173   171   ar
   110    35    36    1
   111   147   145   ar
   112   143   140    1
   113   130   131    1
   114   137   138    1
   115   137   136    1
   116    36    39    1
   117    23    18   am
   118   172   169   ar
   119   171   169   ar
   120   171   170   ar
   121   169   167   ar
   122    19    18    2
   123   170   168   ar
   124   135   136    1
   125   135   134    1
   126   167   168   ar
   127   167   166    1
   128   134   131    1
   129   139   140    1
   130   139   132   am
   131    18    17    1
   132   166   163    1
   133    11    10    2
   134   131   132    1
   135   140   141    1
   136    39    40    1
   137   132   133    2
   138   141   142    2
   139    10     9    1
   140    12    13    1
   141    12     9    1
   142    40    41    1
   143    14    13    2
   144    13    15   am
   145    22    20    1
   146   165   164    2
   147   163   164    1
   148   163   162    1
   149   157   158    1
   150   157   154    1
   151    17    16    1
   152    17    20    1
   153     9     8    1
   154   160   159   ar
   155   155   156    2
   156   155   154    1
   157    20    21    1
   158   158   159    1
   159    41    43   ar
   160    41    42   ar
   161   154   153    1
   162   159   161   ar
   163     8     3   am
   164     4     3    2
   165     3     2    1
   166     1     2    1
   167     2     5    1
   168     5     7    1
   169     5     6    1
