@<TRIPOS>MOLECULE
tmp/3c9rB01.pdb
 74 71 0 0 0
SMALL
GASTEIGER

@<TRIPOS>ATOM
      1  N         18.1240   61.3000  130.6240 N.3    88  LEU88      -0.1231
      2  CA        18.1310   59.8950  130.2490 C.3    88  LEU88       0.1693
      3  C         19.5180   59.3720  130.6040 C.2    88  LEU88       0.2591
      4  O         20.5170   60.0860  130.4520 O.2    88  LEU88      -0.2718
      5  CB        17.9060   59.7290  128.7480 C.3    88  LEU88       0.0284
      6  CG        16.5600   60.1090  128.1260 C.3    88  LEU88       0.0019
      7  CD1       16.6310   59.8960  126.6180 C.3    88  LEU88       0.0001
      8  CD2       15.4440   59.2680  128.7260 C.3    88  LEU88       0.0001
      9  N         19.5850   58.1400  131.0980 N.am   89  ILE89      -0.1980
     10  CA        20.8710   57.5580  131.4360 C.3    89  ILE89       0.1595
     11  C         21.1000   56.2750  130.6550 C.2    89  ILE89       0.2287
     12  O         20.3540   55.3070  130.7950 O.2    89  ILE89      -0.2864
     13  CB        20.9950   57.2530  132.9440 C.3    89  ILE89       0.0276
     14  CG1       20.9750   58.5610  133.7560 C.3    89  ILE89       0.0022
     15  CG2       22.2890   56.5050  133.2030 C.3    89  ILE89       0.0022
     16  CD1       21.1420   58.3700  135.2630 C.3    89  ILE89       0.0001
     17  N         23.3890   53.1580  130.1490 N.3    91  LEU91      -0.1245
     18  CA        24.3880   52.3710  130.8680 C.3    91  LEU91       0.1561
     19  C         24.9870   51.1810  130.1230 C.2    91  LEU91       0.2260
     20  O         24.2690   50.3240  129.6060 O.2    91  LEU91      -0.2867
     21  CB        23.8000   51.8630  132.2010 C.3    91  LEU91       0.0270
     22  CG        23.4620   52.8950  133.2960 C.3    91  LEU91       0.0019
     23  CD1       22.7740   52.1920  134.4700 C.3    91  LEU91       0.0001
     24  CD2       24.7170   53.6020  133.7760 C.3    91  LEU91       0.0001
     25  N         21.8290   54.4350  141.3320 N.3   106  TYR106     -0.1241
     26  CA        20.5690   55.1310  141.1480 C.3   106  TYR106      0.1605
     27  C         20.0300   55.8170  142.3960 C.2   106  TYR106      0.2264
     28  O         19.1710   56.6910  142.2990 O.2   106  TYR106     -0.2867
     29  CB        19.5350   54.1950  140.5280 C.3   106  TYR106      0.0534
     30  CG        19.5810   54.2260  139.0110 C.ar  106  TYR106     -0.0201
     31  CD1       19.0460   55.3140  138.2930 C.ar  106  TYR106     -0.0009
     32  CD2       20.1950   53.1930  138.2870 C.ar  106  TYR106     -0.0009
     33  CE1       19.1250   55.3670  136.8900 C.ar  106  TYR106      0.0417
     34  CE2       20.2820   53.2370  136.8900 C.ar  106  TYR106      0.0417
     35  CZ        19.7490   54.3250  136.2000 C.ar  106  TYR106      0.1957
     36  OH        19.8720   54.3760  134.8340 O.3   106  TYR106     -0.2866
     37  N         14.9740   61.8820  136.1030 N.3   120  VAL120     -0.1231
     38  CA        15.4730   60.8950  135.1500 C.3   120  VAL120      0.1692
     39  C         14.2300   60.1280  134.6870 C.2   120  VAL120      0.2592
     40  O         13.6140   59.4010  135.4670 O.2   120  VAL120     -0.2718
     41  CB        16.5040   59.9200  135.8060 C.3   120  VAL120      0.0266
     42  CG1       16.6930   58.6760  134.9260 C.3   120  VAL120      0.0020
     43  CG2       17.8510   60.6220  135.9760 C.3   120  VAL120      0.0020
     44  N         13.8620   60.2900  133.4200 N.am  121  VAL121     -0.1966
     45  CA        12.6570   59.6530  132.8880 C.3   121  VAL121      0.1727
     46  C         12.8370   58.4160  132.0080 C.2   121  VAL121      0.2617
     47  O         11.8540   57.8680  131.4980 O.2   121  VAL121     -0.2715
     48  CB        11.8240   60.6800  132.0860 C.3   121  VAL121      0.0290
     49  CG1       11.3870   61.8200  132.9970 C.3   121  VAL121      0.0023
     50  CG2       12.6520   61.2170  130.9190 C.3   121  VAL121      0.0023
     51  N         14.0800   57.9850  131.8210 N.am  122  GLY122     -0.1940
     52  CA        14.3390   56.8210  130.9920 C.3   122  GLY122      0.2014
     53  C         15.8250   56.6260  130.7320 C.2   122  GLY122      0.2639
     54  O         16.6640   57.3560  131.2700 O.2   122  GLY122     -0.2714
     55  N         16.1560   55.6380  129.9060 N.am  123  GLY123     -0.1939
     56  CA        17.5480   55.3780  129.5940 C.3   123  GLY123      0.2014
     57  C         17.7450   54.0890  128.8230 C.2   123  GLY123      0.2639
     58  O         16.8550   53.6250  128.1070 O.2   123  GLY123     -0.2714
     59  N         18.9160   53.4880  128.9860 N.am  124  ASN124     -0.1958
     60  CA        19.2260   52.2590  128.2750 C.3   124  ASN124      0.1819
     61  C         20.1770   51.3550  129.0570 C.2   124  ASN124      0.2621
     62  O         20.9380   51.8160  129.9110 O.2   124  ASN124     -0.2715
     63  CB        19.8450   52.6190  126.9220 C.3   124  ASN124      0.1195
     64  CG        19.8270   51.4690  125.9460 C.2   124  ASN124      0.2630
     65  OD1       20.8680   50.9170  125.6090 O.2   124  ASN124     -0.2716
     66  ND2       18.6370   51.1010  125.4850 N.am  124  ASN124     -0.0877
     67  N         20.1120   50.0630  128.7540 N.am  125  ILE125     -0.1977
     68  CA        20.9730   49.0540  129.3710 C.3   125  ILE125      0.1596
     69  C         21.6490   48.2280  128.2510 C.2   125  ILE125      0.2287
     70  O         20.9630   47.6520  127.3980 O.2   125  ILE125     -0.2864
     71  CB        20.1540   48.0790  130.2590 C.3   125  ILE125      0.0276
     72  CG1       19.4410   48.8370  131.3750 C.3   125  ILE125      0.0022
     73  CG2       21.0730   47.0300  130.8540 C.3   125  ILE125      0.0022
     74  CD1       20.3790   49.4720  132.3680 C.3   125  ILE125      0.0001
@<TRIPOS>BOND
     1    66    64   am
     2    65    64    2
     3    64    63    1
     4     7     6    1
     5    63    60    1
     6    70    69    2
     7    58    57    2
     8     6     8    1
     9     6     5    1
    10    69    68    1
    11    60    59    1
    12    60    61    1
    13     5     2    1
    14    67    61   am
    15    67    68    1
    16    57    59   am
    17    57    56    1
    18    61    62    2
    19    68    71    1
    20    56    55    1
    21    20    19    2
    22    55    53   am
    23    19    18    1
    24    17    18    1
    25     2     3    1
    26     2     1    1
    27    71    73    1
    28    71    72    1
    29     4     3    2
    30     3     9   am
    31    11    12    2
    32    11    10    1
    33    53    52    1
    34    53    54    2
    35    18    21    1
    36    50    48    1
    37    52    51    1
    38     9    10    1
    39    72    74    1
    40    10    13    1
    41    47    46    2
    42    51    46   am
    43    46    45    1
    44    48    45    1
    45    48    49    1
    46    21    22    1
    47    45    44    1
    48    13    15    1
    49    13    14    1
    50    22    24    1
    51    22    23    1
    52    44    39   am
    53    14    16    1
    54    39    38    1
    55    39    40    2
    56    36    35    1
    57    42    41    1
    58    38    41    1
    59    38    37    1
    60    41    43    1
    61    35    33   ar
    62    35    34   ar
    63    33    31   ar
    64    34    32   ar
    65    32    30   ar
    66    31    30   ar
    67    30    29    1
    68    29    26    1
    69    26    25    1
    70    26    27    1
    71    28    27    2
