@<TRIPOS>MOLECULE
tmp/3c9rB00.pdb
 167 157 0 0 0
SMALL
GASTEIGER

@<TRIPOS>ATOM
      1  N         40.8460   65.6650  120.2120 N.3    13  GLU13      -0.1231
      2  CA        39.4190   65.7920  120.5210 C.3    13  GLU13       0.1699
      3  C         38.7330   66.9540  119.7910 C.2    13  GLU13       0.2592
      4  O         37.7370   66.7620  119.0850 O.2    13  GLU13      -0.2718
      5  CB        39.2040   65.9570  122.0380 C.3    13  GLU13       0.0402
      6  CG        37.7270   66.1070  122.4610 C.3    13  GLU13       0.1161
      7  CD        37.5290   66.3790  123.9610 C.2    13  GLU13       0.3649
      8  OE1       36.3620   66.5140  124.3890 O.co2  13  GLU13      -0.2457
      9  OE2       38.5250   66.4640  124.7130 O.co2  13  GLU13      -0.2457
     10  N         39.2770   68.1550  119.9490 N.am   14  PHE14      -0.1976
     11  CA        38.6780   69.3350  119.3480 C.3    14  PHE14       0.1639
     12  C         38.8300   69.4530  117.8370 C.2    14  PHE14       0.2290
     13  O         37.9940   70.0670  117.1730 O.2    14  PHE14      -0.2864
     14  CB        39.1990   70.5820  120.0730 C.3    14  PHE14       0.0560
     15  CG        38.8510   70.6000  121.5420 C.ar   14  PHE14      -0.0200
     16  CD1       37.5170   70.6130  121.9510 C.ar   14  PHE14      -0.0042
     17  CD2       39.8450   70.5300  122.5130 C.ar   14  PHE14      -0.0042
     18  CE1       37.1770   70.5480  123.3050 C.ar   14  PHE14      -0.0003
     19  CE2       39.5160   70.4650  123.8730 C.ar   14  PHE14      -0.0003
     20  CZ        38.1770   70.4720  124.2680 C.ar   14  PHE14      -0.0000
     21  N         36.0010   67.4240  116.6870 N.3    17  ILE17      -0.1245
     22  CA        34.7340   68.1240  116.8590 C.3    17  ILE17       0.1561
     23  C         34.5190   69.1160  115.7200 C.2    17  ILE17       0.2260
     24  O         33.3980   69.2770  115.2370 O.2    17  ILE17      -0.2867
     25  CB        34.6660   68.8720  118.2140 C.3    17  ILE17       0.0252
     26  CG1       34.7000   67.8580  119.3660 C.3    17  ILE17       0.0019
     27  CG2       33.3830   69.6970  118.2950 C.3    17  ILE17       0.0019
     28  CD1       34.5640   68.4830  120.7560 C.3    17  ILE17       0.0001
     29  N         33.3290   67.2000  112.6600 N.3    20  ILE20      -0.1245
     30  CA        31.9460   66.7780  112.8280 C.3    20  ILE20       0.1561
     31  C         30.9970   67.9390  112.5690 C.2    20  ILE20       0.2260
     32  O         29.9520   67.7690  111.9440 O.2    20  ILE20      -0.2867
     33  CB        31.7040   66.2330  114.2500 C.3    20  ILE20       0.0252
     34  CG1       32.4930   64.9350  114.4370 C.3    20  ILE20       0.0019
     35  CG2       30.2030   66.0150  114.4860 C.3    20  ILE20       0.0019
     36  CD1       32.4870   64.4030  115.8490 C.3    20  ILE20       0.0001
     37  N         28.3400   68.1740  109.5340 N.3    24  LEU24      -0.1245
     38  CA        26.9080   68.3120  109.7740 C.3    24  LEU24       0.1561
     39  C         26.4410   69.7010  109.3730 C.2    24  LEU24       0.2260
     40  O         25.2350   69.9820  109.3600 O.2    24  LEU24      -0.2867
     41  CB        26.5840   68.0800  111.2570 C.3    24  LEU24       0.0270
     42  CG        26.7950   66.6740  111.8220 C.3    24  LEU24       0.0019
     43  CD1       26.7780   66.7260  113.3470 C.3    24  LEU24       0.0001
     44  CD2       25.7170   65.7340  111.2860 C.3    24  LEU24       0.0001
     45  N         26.4460   73.6840  117.4710 N.3    29  ILE29      -0.1231
     46  CA        27.5590   72.9900  118.1190 C.3    29  ILE29       0.1692
     47  C         28.6540   73.9700  118.5260 C.2    29  ILE29       0.2593
     48  O         28.9600   74.9110  117.7910 O.2    29  ILE29      -0.2718
     49  CB        28.1840   71.9060  117.1780 C.3    29  ILE29       0.0266
     50  CG1       27.1830   70.7740  116.9440 C.3    29  ILE29       0.0019
     51  CG2       29.4770   71.3590  117.7760 C.3    29  ILE29       0.0020
     52  CD1       27.7020   69.6770  116.0130 C.3    29  ILE29       0.0001
     53  N         29.2350   73.7520  119.7030 N.am   30  GLY30      -0.1942
     54  CA        30.2970   74.6280  120.1610 C.3    30  GLY30       0.2014
     55  C         30.2770   75.0090  121.6300 C.2    30  GLY30       0.2639
     56  O         31.3270   75.2650  122.2120 O.2    30  GLY30      -0.2714
     57  N         29.0980   75.0550  122.2350 N.am   31  ASP31      -0.1957
     58  CA        28.9990   75.4250  123.6420 C.3    31  ASP31       0.1840
     59  C         28.7760   74.2320  124.5690 C.2    31  ASP31       0.2622
     60  O         28.7650   73.0860  124.1240 O.2    31  ASP31      -0.2715
     61  CB        27.8750   76.4410  123.8350 C.3    31  ASP31       0.1450
     62  CG        28.1060   77.7020  123.0490 C.2    31  ASP31       0.3671
     63  OD1       29.1580   78.3350  123.2670 O.co2  31  ASP31      -0.2456
     64  OD2       27.2440   78.0590  122.2140 O.co2  31  ASP31      -0.2456
     65  N         28.5970   74.5200  125.8570 N.am   32  ASP32      -0.1957
     66  CA        28.3790   73.4840  126.8590 C.3    32  ASP32       0.1840
     67  C         27.0850   72.7300  126.5890 C.2    32  ASP32       0.2623
     68  O         26.9550   71.5530  126.9350 O.2    32  ASP32      -0.2715
     69  CB        28.3320   74.0950  128.2700 C.3    32  ASP32       0.1450
     70  CG        29.5560   74.9470  128.5820 C.2    32  ASP32       0.3671
     71  OD1       29.6660   76.0550  128.0070 O.co2  32  ASP32      -0.2456
     72  OD2       30.4050   74.5070  129.3940 O.co2  32  ASP32      -0.2456
     73  N         26.1280   73.4090  125.9660 N.am   33  THR33      -0.1937
     74  CA        24.8490   72.7890  125.6610 C.3    33  THR33       0.2028
     75  C         24.4220   73.2490  124.2800 C.2    33  THR33       0.2642
     76  O         25.0500   74.1250  123.7020 O.2    33  THR33      -0.2714
     77  CB        23.7630   73.1990  126.6920 C.3    33  THR33       0.1808
     78  OG1       23.5020   74.6070  126.5880 O.3    33  THR33      -0.2208
     79  CG2       24.2260   72.8740  128.1220 C.3    33  THR33       0.0379
     80  N         23.3650   72.6490  123.7500 N.am   34  ALA34      -0.1977
     81  CA        22.8590   73.0270  122.4390 C.3    34  ALA34       0.1597
     82  C         21.4860   73.6630  122.6210 C.2    34  ALA34       0.2287
     83  O         20.5040   72.9760  122.9210 O.2    34  ALA34      -0.2864
     84  CB        22.7550   71.8080  121.5260 C.3    34  ALA34       0.0319
     85  N         22.2330   68.6010  126.3290 N.3    46  THR46      -0.1203
     86  CA        23.6460   68.3180  126.5480 C.3    46  THR46       0.1994
     87  C         23.9150   66.8870  127.0100 C.2    46  THR46       0.2619
     88  O         23.0170   66.1840  127.4890 O.2    46  THR46      -0.2717
     89  CB        24.2680   69.2770  127.5880 C.3    46  THR46       0.1784
     90  OG1       25.6880   69.1000  127.6030 O.3    46  THR46      -0.2211
     91  CG2       23.7290   68.9840  128.9820 C.3    46  THR46       0.0376
     92  N         25.1630   66.4580  126.8700 N.am   47  THR47      -0.1938
     93  CA        25.5290   65.1180  127.2830 C.3    47  THR47       0.2028
     94  C         26.9830   65.0430  127.7290 C.2    47  THR47       0.2642
     95  O         27.8470   65.7600  127.2150 O.2    47  THR47      -0.2714
     96  CB        25.2730   64.0840  126.1450 C.3    47  THR47       0.1808
     97  OG1       25.6250   62.7700  126.6020 O.3    47  THR47      -0.2208
     98  CG2       26.0960   64.4190  124.9130 C.3    47  THR47       0.0379
     99  N         27.2310   64.1960  128.7210 N.am   48  ASP48      -0.1971
    100  CA        28.5770   63.9740  129.2560 C.3    48  ASP48       0.1709
    101  C         28.6840   62.4910  129.6120 C.2    48  ASP48       0.2293
    102  O         27.6700   61.8120  129.8350 O.2    48  ASP48      -0.2864
    103  CB        28.8570   64.8390  130.5020 C.3    48  ASP48       0.1436
    104  CG        29.4700   66.2180  130.1690 C.2    48  ASP48       0.3671
    105  OD1       29.7530   66.5200  128.9770 O.co2  48  ASP48      -0.2456
    106  OD2       29.6720   67.0030  131.1320 O.co2  48  ASP48      -0.2456
    107  N         26.6620   71.8410  133.1380 N.3    76  ASP76      -0.1239
    108  CA        26.7280   72.3940  131.7770 C.3    76  ASP76       0.1674
    109  C         25.5050   73.2550  131.5050 C.2    76  ASP76       0.2266
    110  O         25.6230   74.3730  130.9970 O.2    76  ASP76      -0.2867
    111  CB        26.7970   71.2930  130.7050 C.3    76  ASP76       0.1410
    112  CG        28.1680   70.6630  130.5960 C.2    76  ASP76       0.3668
    113  OD1       29.1640   71.4020  130.5630 O.co2  76  ASP76      -0.2456
    114  OD2       28.2480   69.4240  130.5330 O.co2  76  ASP76      -0.2456
    115  N         29.5330   80.7430  124.9480 N.3   147  ARG147     -0.1245
    116  CA        30.9170   81.1600  125.1880 C.3   147  ARG147      0.1563
    117  C         31.4390   82.2230  124.2200 C.2   147  ARG147      0.2260
    118  O         32.6400   82.4840  124.1820 O.2   147  ARG147     -0.2867
    119  CB        31.8540   79.9560  125.0930 C.3   147  ARG147      0.0307
    120  CG        31.4170   78.7280  125.8580 C.3   147  ARG147      0.0489
    121  CD        32.3690   77.5710  125.5700 C.3   147  ARG147      0.2205
    122  NE        31.9240   76.3070  126.1480 N.pl3 147  ARG147     -0.0865
    123  CZ        32.5570   75.1500  125.9830 C.cat 147  ARG147      0.5346
    124  NH1       33.6670   75.0970  125.2560 N.pl3 147  ARG147      0.1354
    125  NH2       32.0810   74.0460  126.5400 N.pl3 147  ARG147      0.1354
    126  N         31.3060   76.2520  132.4120 N.3   212  ASP212     -0.1239
    127  CA        31.8020   75.7050  133.6690 C.3   212  ASP212      0.1674
    128  C         33.2550   75.2600  133.4810 C.2   212  ASP212      0.2266
    129  O         33.6880   74.9720  132.3620 O.2   212  ASP212     -0.2867
    130  CB        30.9130   74.5510  134.1510 C.3   212  ASP212      0.1410
    131  CG        30.9090   73.3830  133.2040 C.2   212  ASP212      0.3668
    132  OD1       31.2680   73.5910  132.0310 O.co2 212  ASP212     -0.2456
    133  OD2       30.5370   72.2660  133.6280 O.co2 212  ASP212     -0.2456
    134  N         35.7090   72.6430  133.6290 N.3   214  SER214     -0.1202
    135  CA        35.7890   71.1920  133.6400 C.3   214  SER214      0.2020
    136  C         37.1900   70.6320  133.4320 C.2   214  SER214      0.2618
    137  O         37.6070   69.7160  134.1420 O.2   214  SER214     -0.2717
    138  CB        34.8550   70.6250  132.5670 C.3   214  SER214      0.2103
    139  OG        34.9260   69.2100  132.5210 O.3   214  SER214     -0.2182
    140  N         37.9090   71.1740  132.4530 N.am  215  ASP215     -0.1973
    141  CA        39.2590   70.7060  132.1500 C.3   215  ASP215      0.1709
    142  C         40.3420   71.5010  132.8740 C.2   215  ASP215      0.2293
    143  O         41.5150   71.1330  132.8350 O.2   215  ASP215     -0.2864
    144  CB        39.5180   70.7740  130.6400 C.3   215  ASP215      0.1436
    145  CG        38.5020   69.9870  129.8310 C.2   215  ASP215      0.3671
    146  OD1       37.3160   70.3740  129.8240 O.co2 215  ASP215     -0.2456
    147  OD2       38.8900   68.9810  129.1990 O.co2 215  ASP215     -0.2456
    148  N         40.1150   75.8950  129.8970 N.3   220  ASP220     -0.1239
    149  CA        38.7610   76.3070  129.5740 C.3   220  ASP220      0.1674
    150  C         38.6330   77.8010  129.2760 C.2   220  ASP220      0.2266
    151  O         37.7020   78.2240  128.5900 O.2   220  ASP220     -0.2867
    152  CB        37.8010   75.8670  130.6830 C.3   220  ASP220      0.1410
    153  CG        37.5170   74.3650  130.6430 C.2   220  ASP220      0.3668
    154  OD1       37.0770   73.8630  129.5850 O.co2 220  ASP220     -0.2456
    155  OD2       37.7300   73.6820  131.6660 O.co2 220  ASP220     -0.2456
    156  N         34.1930   72.0540  138.3870 N.3   267  TYR267     -0.1241
    157  CA        32.8270   72.3550  137.9920 C.3   267  TYR267      0.1605
    158  C         32.2860   73.6440  138.6160 C.2   267  TYR267      0.2264
    159  O         31.1670   73.7070  139.1250 O.2   267  TYR267     -0.2867
    160  CB        31.9230   71.1630  138.2960 C.3   267  TYR267      0.0534
    161  CG        32.3130   69.9620  137.4680 C.ar  267  TYR267     -0.0201
    162  CD1       33.0630   68.9170  138.0160 C.ar  267  TYR267     -0.0009
    163  CD2       32.0110   69.9150  136.1100 C.ar  267  TYR267     -0.0009
    164  CE1       33.5080   67.8610  137.2250 C.ar  267  TYR267      0.0417
    165  CE2       32.4490   68.8730  135.3130 C.ar  267  TYR267      0.0417
    166  CZ        33.1980   67.8490  135.8700 C.ar  267  TYR267      0.1957
    167  OH        33.6460   66.8290  135.0580 O.3   267  TYR267     -0.2866
@<TRIPOS>BOND
     1    40    39    2
     2    39    38    1
     3    37    38    1
     4    38    41    1
     5    41    42    1
     6    44    42    1
     7    42    43    1
     8    32    31    2
     9    31    30    1
    10    29    30    1
    11    30    33    1
    12    33    34    1
    13    33    35    1
    14    34    36    1
    15    24    23    2
    16    23    22    1
    17    52    50    1
    18    21    22    1
    19    22    25    1
    20    50    49    1
    21    13    12    2
    22    49    51    1
    23    49    46    1
    24    45    46    1
    25    48    47    2
    26    12    11    1
    27    46    47    1
    28    25    27    1
    29    25    26    1
    30    47    53   am
    31     4     3    2
    32    11    10    1
    33    11    14    1
    34    26    28    1
    35    53    54    1
    36     3    10   am
    37     3     2    1
    38    14    15    1
    39    54    55    1
    40     1     2    1
    41     2     5    1
    42    84    81    1
    43    15    16   ar
    44    15    17   ar
    45    55    56    2
    46    55    57   am
    47    16    18   ar
    48     5     6    1
    49    64    62   ar
    50    57    58    1
    51    81    82    1
    52    81    80    1
    53     6     7    1
    54    17    19   ar
    55    82    83    2
    56    62    63   ar
    57    62    61    1
    58    18    20   ar
    59    58    61    1
    60    58    59    1
    61    76    75    2
    62    80    75   am
    63    19    20   ar
    64     7     8   ar
    65     7     9   ar
    66    60    59    2
    67   118   117    2
    68   117   116    1
    69    75    74    1
    70    59    65   am
    71    98    96    1
    72   115   116    1
    73   119   116    1
    74   119   120    1
    75   124   123    1
    76   121   120    1
    77   121   122    1
    78    74    73    1
    79    74    77    1
    80    65    66    1
    81    73    67   am
    82   123   122    2
    83   123   125    1
    84    96    97    1
    85    96    93    1
    86    85    86    1
    87    86    87    1
    88    86    89    1
    89    78    77    1
    90    67    66    1
    91    67    68    2
    92    77    79    1
    93    66    69    1
    94    92    87   am
    95    92    93    1
    96    87    88    2
    97    95    94    2
    98    93    94    1
    99    89    90    1
   100    89    91    1
   101    94    99   am
   102    71    70   ar
   103    69    70    1
   104    70    72   ar
   105   151   150    2
   106    99   100    1
   107   105   104   ar
   108   147   145   ar
   109   100   101    1
   110   100   103    1
   111   150   149    1
   112   149   148    1
   113   149   152    1
   114   154   153   ar
   115   101   102    2
   116   146   145   ar
   117   145   144    1
   118   104   103    1
   119   104   106   ar
   120   114   112   ar
   121   113   112   ar
   122   112   111    1
   123   144   141    1
   124   153   152    1
   125   153   155   ar
   126   111   108    1
   127   110   109    2
   128   109   108    1
   129   108   107    1
   130   132   131   ar
   131   141   140    1
   132   141   142    1
   133   129   128    2
   134   126   127    1
   135   140   136   am
   136   139   138    1
   137   138   135    1
   138   143   142    2
   139   131   133   ar
   140   131   130    1
   141   136   135    1
   142   136   137    2
   143   128   127    1
   144   134   135    1
   145   127   130    1
   146   167   166    1
   147   165   166   ar
   148   165   163   ar
   149   166   164   ar
   150   163   161   ar
   151   164   162   ar
   152   161   162   ar
   153   161   160    1
   154   157   160    1
   155   157   156    1
   156   157   158    1
   157   158   159    2
