@<TRIPOS>MOLECULE
tmp/3c9tB02.pdb
 165 161 0 0 0
SMALL
GASTEIGER

@<TRIPOS>ATOM
      1  N         39.7820   66.7910  116.9890 N.3    11  GLU11      -0.1245
      2  CA        38.3900   67.0400  117.3550 C.3    11  GLU11       0.1567
      3  C         37.7480   68.2200  116.6220 C.2    11  GLU11       0.2260
      4  O         36.5880   68.1610  116.1950 O.2    11  GLU11      -0.2867
      5  CB        38.2910   67.2690  118.8670 C.3    11  GLU11       0.0388
      6  CG        36.8620   67.3070  119.3960 C.3    11  GLU11       0.1160
      7  CD        36.7830   67.7070  120.8520 C.2    11  GLU11       0.3649
      8  OE1       37.3200   66.9710  121.7100 O.co2  11  GLU11      -0.2457
      9  OE2       36.1860   68.7680  121.1360 O.co2  11  GLU11      -0.2457
     10  N         25.3390   64.5550  125.9330 N.3    46  ASP46      -0.1225
     11  CA        26.6520   64.3660  126.5320 C.3    46  ASP46       0.1805
     12  C         26.8920   62.9070  126.8650 C.2    46  ASP46       0.2597
     13  O         25.9490   62.1660  127.1730 O.2    46  ASP46      -0.2718
     14  CB        26.7810   65.1750  127.8220 C.3    46  ASP46       0.1424
     15  CG        27.8450   66.2410  127.7370 C.2    46  ASP46       0.3668
     16  OD1       28.9420   65.9400  127.2230 O.co2  46  ASP46      -0.2456
     17  OD2       27.5830   67.3750  128.1970 O.co2  46  ASP46      -0.2456
     18  N         28.1580   62.5040  126.8290 N.am   47  VAL47      -0.1980
     19  CA        28.4850   61.1300  127.1460 C.3    47  VAL47       0.1595
     20  C         29.5390   61.0270  128.2250 C.2    47  VAL47       0.2287
     21  O         30.3300   61.9360  128.4350 O.2    47  VAL47      -0.2864
     22  CB        29.0060   60.3470  125.9170 C.3    47  VAL47       0.0276
     23  CG1       28.8850   58.8470  126.1670 C.3    47  VAL47       0.0022
     24  CG2       28.2250   60.7300  124.6890 C.3    47  VAL47       0.0022
     25  N         36.4530   54.4210  131.5530 N.3    51  GLY51      -0.1210
     26  CA        37.8250   54.5370  131.1170 C.3    51  GLY51       0.1956
     27  C         38.1220   55.8930  130.5080 C.2    51  GLY51       0.2612
     28  O         39.2710   56.3050  130.4750 O.2    51  GLY51      -0.2717
     29  N         37.1080   56.5940  130.0090 N.am   52  VAL52      -0.1965
     30  CA        37.3420   57.9110  129.4210 C.3    52  VAL52       0.1727
     31  C         36.9060   59.0590  130.3230 C.2    52  VAL52       0.2616
     32  O         37.6080   60.0620  130.4200 O.2    52  VAL52      -0.2715
     33  CB        36.6300   58.0680  128.0700 C.3    52  VAL52       0.0290
     34  CG1       36.8150   59.4860  127.5430 C.3    52  VAL52       0.0023
     35  CG2       37.1950   57.0810  127.0760 C.3    52  VAL52       0.0023
     36  N         35.7550   58.9140  130.9800 N.am   53  HIS53      -0.1959
     37  CA        35.2390   59.9560  131.8720 C.3    53  HIS53       0.1787
     38  C         35.1690   59.5560  133.3320 C.2    53  HIS53       0.2620
     39  O         35.0580   60.4170  134.1960 O.2    53  HIS53      -0.2715
     40  CB        33.8280   60.3990  131.4690 C.3    53  HIS53       0.0785
     41  CG        33.7140   60.8700  130.0570 C.ar   53  HIS53       0.0821
     42  ND1       33.5370   60.0050  128.9980 N.ar   53  HIS53      -0.2267
     43  CD2       33.7560   62.1150  129.5260 C.ar   53  HIS53       0.1154
     44  CE1       33.4740   60.7000  127.8750 C.ar   53  HIS53       0.1986
     45  NE2       33.6040   61.9810  128.1670 N.ar   53  HIS53      -0.2212
     46  N         35.2030   58.2570  133.5970 N.am   54  PHE54      -0.1960
     47  CA        35.1240   57.7310  134.9570 C.3    54  PHE54       0.1771
     48  C         35.5650   56.2830  134.8860 C.2    54  PHE54       0.2619
     49  O         35.7640   55.7530  133.7920 O.2    54  PHE54      -0.2715
     50  CB        33.6760   57.8030  135.4860 C.3    54  PHE54       0.0574
     51  CG        32.7280   56.8260  134.8190 C.ar   54  PHE54      -0.0200
     52  CD1       32.3260   55.6630  135.4770 C.ar   54  PHE54      -0.0042
     53  CD2       32.2860   57.0410  133.5100 C.ar   54  PHE54      -0.0042
     54  CE1       31.5030   54.7270  134.8400 C.ar   54  PHE54      -0.0003
     55  CE2       31.4680   56.1160  132.8640 C.ar   54  PHE54      -0.0003
     56  CZ        31.0760   54.9560  133.5280 C.ar   54  PHE54      -0.0000
     57  N         35.7210   55.6490  136.0440 N.am   55  LEU55      -0.1977
     58  CA        36.1210   54.2500  136.1040 C.3    55  LEU55       0.1596
     59  C         35.0030   53.4930  136.8060 C.2    55  LEU55       0.2287
     60  O         34.3080   54.0630  137.6500 O.2    55  LEU55      -0.2864
     61  CB        37.4240   54.0980  136.8920 C.3    55  LEU55       0.0297
     62  CG        38.6190   54.9340  136.4280 C.3    55  LEU55       0.0022
     63  CD1       39.8230   54.6270  137.3040 C.3    55  LEU55       0.0001
     64  CD2       38.9470   54.6270  134.9800 C.3    55  LEU55       0.0001
     65  N         34.4230   53.7910  140.5860 N.3    58  TYR58      -0.1241
     66  CA        33.8220   54.9430  141.2570 C.3    58  TYR58       0.1605
     67  C         32.4580   54.5930  141.8430 C.2    58  TYR58       0.2264
     68  O         31.8700   53.5600  141.5220 O.2    58  TYR58      -0.2867
     69  CB        33.6330   56.1120  140.2940 C.3    58  TYR58       0.0534
     70  CG        34.8920   56.7380  139.7630 C.ar   58  TYR58      -0.0201
     71  CD1       36.1530   56.3810  140.2500 C.ar   58  TYR58      -0.0009
     72  CD2       34.8200   57.7130  138.7620 C.ar   58  TYR58      -0.0009
     73  CE1       37.3120   56.9890  139.7430 C.ar   58  TYR58       0.0417
     74  CE2       35.9600   58.3210  138.2550 C.ar   58  TYR58       0.0417
     75  CZ        37.1960   57.9600  138.7430 C.ar   58  TYR58       0.1957
     76  OH        38.3030   58.5830  138.2150 O.3    58  TYR58      -0.2866
     77  N         40.6280   64.6110  140.3300 N.3   167  LEU167     -0.1245
     78  CA        40.8760   63.4560  139.4760 C.3   167  LEU167      0.1561
     79  C         42.2330   62.8270  139.7670 C.2   167  LEU167      0.2260
     80  O         42.3680   61.6020  139.7970 O.2   167  LEU167     -0.2867
     81  CB        40.8160   63.8460  138.0030 C.3   167  LEU167      0.0270
     82  CG        41.2840   62.7020  137.0960 C.3   167  LEU167      0.0019
     83  CD1       40.3070   61.5370  137.1700 C.3   167  LEU167      0.0001
     84  CD2       41.4210   63.2040  135.6770 C.3   167  LEU167      0.0001
     85  N         43.1420   59.0160  141.1780 N.3   171  LEU171     -0.1245
     86  CA        44.1010   58.1190  140.5450 C.3   171  LEU171      0.1561
     87  C         45.1530   57.5740  141.5110 C.2   171  LEU171      0.2260
     88  O         45.7380   56.5190  141.2510 O.2   171  LEU171     -0.2867
     89  CB        44.7980   58.8280  139.3780 C.3   171  LEU171      0.0270
     90  CG        44.2650   58.7560  137.9330 C.3   171  LEU171      0.0019
     91  CD1       42.8710   58.1250  137.8730 C.3   171  LEU171      0.0001
     92  CD2       44.2590   60.1720  137.3490 C.3   171  LEU171      0.0001
     93  N         35.1420   66.6020  141.3760 N.3   188  HIS188     -0.1241
     94  CA        35.3670   65.8710  140.1370 C.3   188  HIS188      0.1621
     95  C         34.2490   64.8650  139.9140 C.2   188  HIS188      0.2264
     96  O         33.7020   64.7640  138.8160 O.2   188  HIS188     -0.2867
     97  CB        36.6960   65.1220  140.1820 C.3   188  HIS188      0.0745
     98  CG        36.9580   64.2900  138.9660 C.ar  188  HIS188      0.0817
     99  ND1       37.3090   64.8370  137.7490 N.ar  188  HIS188     -0.2268
    100  CD2       36.8900   62.9520  138.7710 C.ar  188  HIS188      0.1154
    101  CE1       37.4450   63.8730  136.8580 C.ar  188  HIS188      0.1986
    102  NE2       37.1960   62.7190  137.4520 N.ar  188  HIS188     -0.2212
    103  N         34.4380   73.2370  130.3670 N.3   212  SER212     -0.1202
    104  CA        34.4000   71.7900  130.4700 C.3   212  SER212      0.2020
    105  C         35.7270   71.1230  130.1610 C.2   212  SER212      0.2618
    106  O         36.0420   70.0820  130.7270 O.2   212  SER212     -0.2717
    107  CB        33.3300   71.2630  129.5260 C.3   212  SER212      0.2103
    108  OG        33.5060   71.8380  128.2450 O.3   212  SER212     -0.2182
    109  N         36.5060   71.7140  129.2680 N.am  213  ASP213     -0.1973
    110  CA        37.7900   71.1300  128.9120 C.3   213  ASP213      0.1709
    111  C         38.9790   71.8900  129.4800 C.2   213  ASP213      0.2293
    112  O         40.1030   71.3990  129.4690 O.2   213  ASP213     -0.2864
    113  CB        37.9150   71.0550  127.3950 C.3   213  ASP213      0.1436
    114  CG        36.7740   70.3050  126.7620 C.2   213  ASP213      0.3671
    115  OD1       35.8910   70.9500  126.1650 O.co2 213  ASP213     -0.2456
    116  OD2       36.7530   69.0630  126.8750 O.co2 213  ASP213     -0.2456
    117  N         40.3240   70.6500  133.6720 N.3   262  GLY262     -0.1210
    118  CA        39.0400   70.3570  133.0670 C.3   262  GLY262      0.1956
    119  C         37.9130   69.9360  133.9930 C.2   262  GLY262      0.2611
    120  O         38.0870   69.7700  135.2060 O.2   262  GLY262     -0.2717
    121  N         36.7410   69.7700  133.3900 N.am  263  GLU263     -0.1979
    122  CA        35.5360   69.3490  134.0860 C.3   263  GLU263      0.1602
    123  C         35.1680   70.1410  135.3310 C.2   263  GLU263      0.2287
    124  O         34.6250   69.5790  136.2820 O.2   263  GLU263     -0.2864
    125  CB        35.6250   67.8530  134.4260 C.3   263  GLU263      0.0415
    126  CG        35.4170   66.9390  133.2180 C.3   263  GLU263      0.1163
    127  CD        35.6920   65.4800  133.5230 C.2   263  GLU263      0.3649
    128  OE1       36.8380   65.1670  133.8980 O.co2 263  GLU263     -0.2457
    129  OE2       34.7750   64.6410  133.3880 O.co2 263  GLU263     -0.2457
    130  N         33.1340   72.7010  135.1430 N.3   265  TYR265     -0.1241
    131  CA        31.7570   73.0420  134.8440 C.3   265  TYR265      0.1605
    132  C         31.2500   74.3360  135.4560 C.2   265  TYR265      0.2264
    133  O         30.1180   74.4220  135.9360 O.2   265  TYR265     -0.2867
    134  CB        30.8410   71.8760  135.2020 C.3   265  TYR265      0.0534
    135  CG        31.1180   70.6710  134.3390 C.ar  265  TYR265     -0.0201
    136  CD1       31.9370   69.6420  134.7940 C.ar  265  TYR265     -0.0009
    137  CD2       30.6140   70.5890  133.0400 C.ar  265  TYR265     -0.0009
    138  CE1       32.2510   68.5610  133.9830 C.ar  265  TYR265      0.0417
    139  CE2       30.9260   69.5100  132.2170 C.ar  265  TYR265      0.0417
    140  CZ        31.7470   68.4970  132.6960 C.ar  265  TYR265      0.1957
    141  OH        32.0620   67.4060  131.9030 O.3   265  TYR265     -0.2866
    142  N         41.2380   69.2520  126.7800 N.3   306  TRP306     -0.1241
    143  CA        40.9260   67.8360  126.7240 C.3   306  TRP306      0.1605
    144  C         41.0880   67.2640  125.3190 C.2   306  TRP306      0.2264
    145  O         42.0740   66.5900  125.0410 O.2   306  TRP306     -0.2867
    146  CB        39.5160   67.5620  127.2520 C.3   306  TRP306      0.0550
    147  CG        39.0840   66.1520  127.0140 C.ar  306  TRP306      0.0003
    148  CD1       38.0440   65.7390  126.2360 C.ar  306  TRP306      0.0946
    149  CD2       39.7220   64.9610  127.5000 C.ar  306  TRP306      0.0152
    150  NE1       37.9940   64.3660  126.2000 N.ar  306  TRP306     -0.2442
    151  CE2       39.0110   63.8610  126.9660 C.ar  306  TRP306      0.0810
    152  CE3       40.8230   64.7160  128.3320 C.ar  306  TRP306      0.0012
    153  CZ2       39.3660   62.5330  127.2350 C.ar  306  TRP306      0.0191
    154  CZ3       41.1750   63.3950  128.6000 C.ar  306  TRP306      0.0001
    155  CH2       40.4450   62.3220  128.0510 C.ar  306  TRP306      0.0015
    156  N         39.3680   64.8480  122.3190 N.3   308  HIS308     -0.1241
    157  CA        39.3410   63.4010  122.2370 C.3   308  HIS308      0.1621
    158  C         40.2630   62.9110  121.1210 C.2   308  HIS308      0.2264
    159  O         40.6920   61.7510  121.1130 O.2   308  HIS308     -0.2867
    160  CB        37.9130   62.9040  121.9880 C.3   308  HIS308      0.0745
    161  CG        37.0380   62.9300  123.2050 C.ar  308  HIS308      0.0817
    162  ND1       36.1680   63.9650  123.4770 N.ar  308  HIS308     -0.2268
    163  CD2       36.9200   62.0580  124.2350 C.ar  308  HIS308      0.1154
    164  CE1       35.5550   63.7290  124.6230 C.ar  308  HIS308      0.1986
    165  NE2       35.9940   62.5800  125.1040 N.ar  308  HIS308     -0.2212
@<TRIPOS>BOND
     1     4     3    2
     2     3     2    1
     3     1     2    1
     4     2     5    1
     5     5     6    1
     6     6     7    1
     7     7     9   ar
     8     7     8   ar
     9   159   158    2
    10   158   157    1
    11   160   157    1
    12   160   161    1
    13   157   156    1
    14   161   162   ar
    15   161   163   ar
    16   162   164   ar
    17   163   165   ar
    18   164   165   ar
    19    24    22    1
    20   145   144    2
    21   144   143    1
    22    22    23    1
    23    22    19    1
    24    10    11    1
    25   115   114   ar
    26   150   148   ar
    27   150   151   ar
    28   148   147   ar
    29    11    12    1
    30    11    14    1
    31   143   142    1
    32   143   146    1
    33   114   116   ar
    34   114   113    1
    35    18    12   am
    36    18    19    1
    37    12    13    2
    38   151   153   ar
    39   151   149   ar
    40   147   146    1
    41   147   149   ar
    42    35    33    1
    43    19    20    1
    44    16    15   ar
    45   153   155   ar
    46   113   110    1
    47   149   152   ar
    48    34    33    1
    49    15    14    1
    50    15    17   ar
    51    44    45   ar
    52    44    42   ar
    53   155   154   ar
    54    33    30    1
    55    45    43   ar
    56    20    21    2
    57   108   107    1
    58   152   154   ar
    59   110   109    1
    60   110   111    1
    61    42    41   ar
    62   109   105   am
    63    30    29    1
    64    30    31    1
    65   112   111    2
    66   107   104    1
    67    43    41   ar
    68    29    27   am
    69    41    40    1
    70   105   104    1
    71   105   106    2
    72    31    32    2
    73    31    36   am
    74   103   104    1
    75    28    27    2
    76    27    26    1
    77    36    37    1
    78    26    25    1
    79    40    37    1
    80    37    38    1
    81   141   140    1
    82   139   140   ar
    83   139   137   ar
    84   140   138   ar
    85    55    53   ar
    86    55    56   ar
    87   137   135   ar
    88   118   117    1
    89   118   119    1
    90   126   127    1
    91   126   125    1
    92    38    46   am
    93    38    39    2
    94   129   127   ar
    95   121   119   am
    96   121   122    1
    97    53    51   ar
    98   127   128   ar
    99    56    54   ar
   100    46    47    1
   101    49    48    2
   102   138   136   ar
   103   119   120    2
   104   122   125    1
   105   122   123    1
   106   135   136   ar
   107   135   134    1
   108    51    52   ar
   109    51    50    1
   110    54    52   ar
   111   131   130    1
   112   131   134    1
   113   131   132    1
   114    48    47    1
   115    48    57   am
   116    47    50    1
   117    64    62    1
   118   123   124    2
   119   132   133    2
   120    84    82    1
   121    57    58    1
   122    58    59    1
   123    58    61    1
   124    62    61    1
   125    62    63    1
   126    59    60    2
   127   101   102   ar
   128   101    99   ar
   129    82    83    1
   130    82    81    1
   131    92    90    1
   132   102   100   ar
   133    99    98   ar
   134    91    90    1
   135    90    89    1
   136    81    78    1
   137    76    75    1
   138    74    75   ar
   139    74    72   ar
   140    75    73   ar
   141    72    70   ar
   142   100    98   ar
   143    96    95    2
   144    98    97    1
   145    89    86    1
   146    78    79    1
   147    78    77    1
   148    73    71   ar
   149    70    71   ar
   150    70    69    1
   151    79    80    2
   152    95    94    1
   153    94    97    1
   154    94    93    1
   155    69    66    1
   156    86    85    1
   157    86    87    1
   158    65    66    1
   159    88    87    2
   160    66    67    1
   161    68    67    2
