@<TRIPOS>MOLECULE
tmp/3c9tB00.pdb
 169 160 0 0 0
SMALL
GASTEIGER

@<TRIPOS>ATOM
      1  N         39.7820   66.7910  116.9890 N.3    11  GLU11      -0.1231
      2  CA        38.3900   67.0400  117.3550 C.3    11  GLU11       0.1699
      3  C         37.7480   68.2200  116.6220 C.2    11  GLU11       0.2592
      4  O         36.5880   68.1610  116.1950 O.2    11  GLU11      -0.2718
      5  CB        38.2910   67.2690  118.8670 C.3    11  GLU11       0.0402
      6  CG        36.8620   67.3070  119.3960 C.3    11  GLU11       0.1161
      7  CD        36.7830   67.7070  120.8520 C.2    11  GLU11       0.3649
      8  OE1       37.3200   66.9710  121.7100 O.co2  11  GLU11      -0.2457
      9  OE2       36.1860   68.7680  121.1360 O.co2  11  GLU11      -0.2457
     10  N         38.5110   69.2920  116.4740 N.am   12  PHE12      -0.1976
     11  CA        38.0180   70.4890  115.8150 C.3    12  PHE12       0.1639
     12  C         37.8660   70.3240  114.3030 C.2    12  PHE12       0.2290
     13  O         37.0540   71.0020  113.6770 O.2    12  PHE12      -0.2864
     14  CB        38.9530   71.6410  116.1480 C.3    12  PHE12       0.0560
     15  CG        39.2480   71.7540  117.6150 C.ar   12  PHE12      -0.0200
     16  CD1       38.2070   71.8820  118.5380 C.ar   12  PHE12      -0.0042
     17  CD2       40.5610   71.7150  118.0830 C.ar   12  PHE12      -0.0042
     18  CE1       38.4710   71.9670  119.9100 C.ar   12  PHE12      -0.0003
     19  CE2       40.8390   71.8010  119.4550 C.ar   12  PHE12      -0.0003
     20  CZ        39.7920   71.9270  120.3690 C.ar   12  PHE12      -0.0000
     21  N         34.6240   68.1600  114.0930 N.3    15  ILE15      -0.1245
     22  CA        33.4510   69.0040  114.2740 C.3    15  ILE15       0.1561
     23  C         33.1440   69.8270  113.0320 C.2    15  ILE15       0.2260
     24  O         31.9930   69.8910  112.5860 O.2    15  ILE15      -0.2867
     25  CB        33.6280   69.9680  115.4660 C.3    15  ILE15       0.0252
     26  CG1       33.6600   69.1810  116.7710 C.3    15  ILE15       0.0019
     27  CG2       32.5130   70.9920  115.4760 C.3    15  ILE15       0.0019
     28  CD1       32.5080   68.2140  116.9310 C.3    15  ILE15       0.0001
     29  N         31.6810   67.6890  110.1690 N.3    18  ILE18      -0.1245
     30  CA        30.2980   67.2610  110.3600 C.3    18  ILE18       0.1561
     31  C         29.3680   68.4270  110.0690 C.2    18  ILE18       0.2260
     32  O         28.3670   68.2750  109.3730 O.2    18  ILE18      -0.2867
     33  CB        30.0540   66.7760  111.8080 C.3    18  ILE18       0.0252
     34  CG1       30.9920   65.6130  112.1280 C.3    18  ILE18       0.0019
     35  CG2       28.6040   66.3510  111.9840 C.3    18  ILE18       0.0019
     36  CD1       30.8000   65.0420  113.5160 C.3    18  ILE18       0.0001
     37  N         26.8390   68.3730  107.0830 N.3    22  LEU22      -0.1245
     38  CA        25.4230   68.5620  107.3740 C.3    22  LEU22       0.1561
     39  C         24.9140   69.8840  106.8180 C.2    22  LEU22       0.2260
     40  O         23.7020   70.0790  106.6670 O.2    22  LEU22      -0.2867
     41  CB        25.1830   68.5550  108.8790 C.3    22  LEU22       0.0270
     42  CG        25.0490   67.1940  109.5430 C.3    22  LEU22       0.0019
     43  CD1       25.0090   67.3720  111.0500 C.3    22  LEU22       0.0001
     44  CD2       23.7830   66.5070  109.0280 C.3    22  LEU22       0.0001
     45  N         24.5830   75.3220  114.9420 N.3    27  ILE27      -0.1231
     46  CA        25.5040   74.3860  115.5650 C.3    27  ILE27       0.1692
     47  C         26.8960   74.9560  115.7710 C.2    27  ILE27       0.2593
     48  O         27.5840   75.3130  114.8250 O.2    27  ILE27      -0.2718
     49  CB        25.5890   73.0850  114.7200 C.3    27  ILE27       0.0266
     50  CG1       26.6970   72.1720  115.2350 C.3    27  ILE27       0.0019
     51  CG2       25.7980   73.4290  113.2510 C.3    27  ILE27       0.0020
     52  CD1       26.6760   70.8130  114.5750 C.3    27  ILE27       0.0001
     53  N         27.3030   75.0300  117.0280 N.am   28  GLY28      -0.1942
     54  CA        28.6090   75.5600  117.3560 C.3    28  GLY28       0.2014
     55  C         28.5710   76.0770  118.7730 C.2    28  GLY28       0.2639
     56  O         29.5710   76.5820  119.2910 O.2    28  GLY28      -0.2714
     57  N         27.3960   75.9500  119.3900 N.am   29  ASP29      -0.1957
     58  CA        27.1760   76.3890  120.7660 C.3    29  ASP29       0.1840
     59  C         27.0380   75.1810  121.7100 C.2    29  ASP29       0.2622
     60  O         27.1450   74.0420  121.2750 O.2    29  ASP29      -0.2715
     61  CB        25.9250   77.2760  120.8370 C.3    29  ASP29       0.1450
     62  CG        26.1150   78.6310  120.1410 C.2    29  ASP29       0.3671
     63  OD1       27.0860   79.3520  120.4690 O.co2  29  ASP29      -0.2456
     64  OD2       25.2840   78.9820  119.2710 O.co2  29  ASP29      -0.2456
     65  N         26.8120   75.4240  122.9990 N.am   30  ASP30      -0.1957
     66  CA        26.6890   74.3280  123.9600 C.3    30  ASP30       0.1840
     67  C         25.4000   73.5510  123.7700 C.2    30  ASP30       0.2623
     68  O         25.3030   72.3850  124.1400 O.2    30  ASP30      -0.2715
     69  CB        26.7830   74.8630  125.3830 C.3    30  ASP30       0.1450
     70  CG        28.0170   75.7080  125.5970 C.2    30  ASP30       0.3671
     71  OD1       28.0380   76.8430  125.0720 O.co2  30  ASP30      -0.2456
     72  OD2       28.9660   75.2390  126.2700 O.co2  30  ASP30      -0.2456
     73  N         24.4080   74.2070  123.1870 N.am   31  THR31      -0.1937
     74  CA        23.1300   73.5710  122.9070 C.3    31  THR31       0.2028
     75  C         22.7190   73.9470  121.4960 C.2    31  THR31       0.2642
     76  O         23.4250   74.6850  120.8070 O.2    31  THR31      -0.2714
     77  CB        22.0120   74.0240  123.8920 C.3    31  THR31       0.1808
     78  OG1       21.9150   75.4580  123.9030 O.3    31  THR31      -0.2208
     79  CG2       22.3000   73.5080  125.2980 C.3    31  THR31       0.0379
     80  N         21.5840   73.4160  121.0620 N.am   32  ALA32      -0.1977
     81  CA        21.0580   73.7110  119.7400 C.3    32  ALA32       0.1597
     82  C         19.7160   74.4110  119.9440 C.2    32  ALA32       0.2287
     83  O         18.7550   73.8050  120.4280 O.2    32  ALA32      -0.2864
     84  CB        20.8790   72.4120  118.9290 C.3    32  ALA32       0.0319
     85  N         20.6000   69.3400  123.8530 N.3    44  THR44      -0.1203
     86  CA        22.0030   69.0170  124.0350 C.3    44  THR44       0.1994
     87  C         22.1870   67.5860  124.4990 C.2    44  THR44       0.2619
     88  O         21.2960   66.9990  125.1130 O.2    44  THR44      -0.2717
     89  CB        22.6700   69.9610  125.0540 C.3    44  THR44       0.1784
     90  OG1       24.0750   69.6620  125.1360 O.3    44  THR44      -0.2211
     91  CG2       22.0170   69.8070  126.4260 C.3    44  THR44       0.0376
     92  N         23.3510   67.0270  124.1970 N.am   45  THR45      -0.1938
     93  CA        23.6570   65.6680  124.5940 C.3    45  THR45       0.2028
     94  C         25.0720   65.5960  125.1490 C.2    45  THR45       0.2642
     95  O         25.9040   66.4660  124.8690 O.2    45  THR45      -0.2714
     96  CB        23.5270   64.6880  123.4060 C.3    45  THR45       0.1808
     97  OG1       23.8340   63.3580  123.8450 O.3    45  THR45      -0.2208
     98  CG2       24.4790   65.0660  122.2940 C.3    45  THR45       0.0379
     99  N         25.3390   64.5550  125.9330 N.am   46  ASP46      -0.1971
    100  CA        26.6520   64.3660  126.5320 C.3    46  ASP46       0.1709
    101  C         26.8920   62.9070  126.8650 C.2    46  ASP46       0.2293
    102  O         25.9490   62.1660  127.1730 O.2    46  ASP46      -0.2864
    103  CB        26.7810   65.1750  127.8220 C.3    46  ASP46       0.1436
    104  CG        27.8450   66.2410  127.7370 C.2    46  ASP46       0.3671
    105  OD1       28.9420   65.9400  127.2230 O.co2  46  ASP46      -0.2456
    106  OD2       27.5830   67.3750  128.1970 O.co2  46  ASP46      -0.2456
    107  N         25.3100   72.3610  130.2220 N.3    74  ASP74      -0.1239
    108  CA        25.2360   72.9330  128.8640 C.3    74  ASP74       0.1674
    109  C         23.9580   73.7460  128.6800 C.2    74  ASP74       0.2266
    110  O         23.9880   74.8220  128.0850 O.2    74  ASP74      -0.2867
    111  CB        25.2730   71.8480  127.7750 C.3    74  ASP74       0.1410
    112  CG        26.6960   71.4500  127.3530 C.2    74  ASP74       0.3668
    113  OD1       27.6260   72.2990  127.3330 O.co2  74  ASP74      -0.2456
    114  OD2       26.8650   70.2590  127.0010 O.co2  74  ASP74      -0.2456
    115  N         27.6160   81.7260  122.2260 N.3   145  ARG145     -0.1245
    116  CA        28.9490   82.1770  122.5680 C.3   145  ARG145      0.1563
    117  C         29.4970   83.0030  121.4160 C.2   145  ARG145      0.2260
    118  O         30.7080   83.0850  121.2150 O.2   145  ARG145     -0.2867
    119  CB        29.8520   80.9670  122.8400 C.3   145  ARG145      0.0307
    120  CG        29.9170   79.9670  121.6970 C.3   145  ARG145      0.0489
    121  CD        30.9600   78.8660  121.9260 C.3   145  ARG145      0.2205
    122  NE        30.4940   77.7750  122.7840 N.pl3 145  ARG145     -0.0865
    123  CZ        30.8680   76.5030  122.6380 C.cat 145  ARG145      0.5346
    124  NH1       31.7040   76.1660  121.6670 N.pl3 145  ARG145      0.1354
    125  NH2       30.4210   75.5700  123.4680 N.pl3 145  ARG145      0.1354
    126  N         29.9520   76.9160  129.2440 N.3   210  ASP210     -0.1239
    127  CA        30.5170   76.3250  130.4550 C.3   210  ASP210      0.1674
    128  C         31.9210   75.7800  130.2200 C.2   210  ASP210      0.2266
    129  O         32.2190   75.2270  129.1650 O.2   210  ASP210     -0.2867
    130  CB        29.6050   75.2170  130.9930 C.3   210  ASP210      0.1410
    131  CG        29.4470   74.0780  130.0250 C.2   210  ASP210      0.3668
    132  OD1       29.8640   74.2460  128.8670 O.co2 210  ASP210     -0.2456
    133  OD2       28.8980   73.0240  130.4160 O.co2 210  ASP210     -0.2456
    134  N         34.4380   73.2370  130.3670 N.3   212  SER212     -0.1202
    135  CA        34.4000   71.7900  130.4700 C.3   212  SER212      0.2020
    136  C         35.7270   71.1230  130.1610 C.2   212  SER212      0.2618
    137  O         36.0420   70.0820  130.7270 O.2   212  SER212     -0.2717
    138  CB        33.3300   71.2630  129.5260 C.3   212  SER212      0.2103
    139  OG        33.5060   71.8380  128.2450 O.3   212  SER212     -0.2182
    140  N         36.5060   71.7140  129.2680 N.am  213  ASP213     -0.1973
    141  CA        37.7900   71.1300  128.9120 C.3   213  ASP213      0.1709
    142  C         38.9790   71.8900  129.4800 C.2   213  ASP213      0.2293
    143  O         40.1030   71.3990  129.4690 O.2   213  ASP213     -0.2864
    144  CB        37.9150   71.0550  127.3950 C.3   213  ASP213      0.1436
    145  CG        36.7740   70.3050  126.7620 C.2   213  ASP213      0.3671
    146  OD1       35.8910   70.9500  126.1650 O.co2 213  ASP213     -0.2456
    147  OD2       36.7530   69.0630  126.8750 O.co2 213  ASP213     -0.2456
    148  N         36.8770   78.9850  122.0880 N.3   221  HIS221     -0.1241
    149  CA        35.6110   78.7620  121.4030 C.3   221  HIS221      0.1621
    150  C         34.8620   80.0880  121.4310 C.2   221  HIS221      0.2264
    151  O         34.3350   80.5410  120.4160 O.2   221  HIS221     -0.2867
    152  CB        34.7570   77.7040  122.1150 C.3   221  HIS221      0.0745
    153  CG        35.2260   76.2960  121.9180 C.ar  221  HIS221      0.0817
    154  ND1       36.4520   75.8460  122.3590 N.ar  221  HIS221     -0.2268
    155  CD2       34.6180   75.2280  121.3510 C.ar  221  HIS221      0.1154
    156  CE1       36.5780   74.5620  122.0730 C.ar  221  HIS221      0.1986
    157  NE2       35.4780   74.1630  121.4620 N.ar  221  HIS221     -0.2212
    158  N         33.1340   72.7010  135.1430 N.3   265  TYR265     -0.1241
    159  CA        31.7570   73.0420  134.8440 C.3   265  TYR265      0.1605
    160  C         31.2500   74.3360  135.4560 C.2   265  TYR265      0.2264
    161  O         30.1180   74.4220  135.9360 O.2   265  TYR265     -0.2867
    162  CB        30.8410   71.8760  135.2020 C.3   265  TYR265      0.0534
    163  CG        31.1180   70.6710  134.3390 C.ar  265  TYR265     -0.0201
    164  CD1       31.9370   69.6420  134.7940 C.ar  265  TYR265     -0.0009
    165  CD2       30.6140   70.5890  133.0400 C.ar  265  TYR265     -0.0009
    166  CE1       32.2510   68.5610  133.9830 C.ar  265  TYR265      0.0417
    167  CE2       30.9260   69.5100  132.2170 C.ar  265  TYR265      0.0417
    168  CZ        31.7470   68.4970  132.6960 C.ar  265  TYR265      0.1957
    169  OH        32.0620   67.4060  131.9030 O.3   265  TYR265     -0.2866
@<TRIPOS>BOND
     1    40    39    2
     2    39    38    1
     3    37    38    1
     4    38    41    1
     5    41    42    1
     6    44    42    1
     7    32    31    2
     8    42    43    1
     9    31    30    1
    10    29    30    1
    11    30    33    1
    12    33    35    1
    13    33    34    1
    14    34    36    1
    15    24    23    2
    16    23    22    1
    17    51    49    1
    18    13    12    2
    19    21    22    1
    20    22    25    1
    21    12    11    1
    22    52    50    1
    23    49    50    1
    24    49    46    1
    25    48    47    2
    26    45    46    1
    27    25    27    1
    28    25    26    1
    29    46    47    1
    30    47    53   am
    31    11    14    1
    32    11    10    1
    33    14    15    1
    34     4     3    2
    35    10     3   am
    36     3     2    1
    37    26    28    1
    38     1     2    1
    39    53    54    1
    40     2     5    1
    41    54    55    1
    42    15    17   ar
    43    15    16   ar
    44    17    19   ar
    45    16    18   ar
    46    55    56    2
    47    55    57   am
    48     5     6    1
    49    84    81    1
    50    64    62   ar
    51    57    58    1
    52     6     7    1
    53    19    20   ar
    54    81    82    1
    55    81    80    1
    56    18    20   ar
    57    82    83    2
    58    62    63   ar
    59    62    61    1
    60   151   150    2
    61    58    61    1
    62    58    59    1
    63    76    75    2
    64     7     9   ar
    65     7     8   ar
    66    80    75   am
    67   118   117    2
    68    60    59    2
    69   155   157   ar
    70   155   153   ar
    71   149   150    1
    72   149   148    1
    73   149   152    1
    74   117   116    1
    75   157   156   ar
    76    75    74    1
    77   124   123    1
    78   120   121    1
    79   120   119    1
    80    59    65   am
    81   153   152    1
    82   153   154   ar
    83   121   122    1
    84   156   154   ar
    85   115   116    1
    86    98    96    1
    87   116   119    1
    88   123   122    2
    89   123   125    1
    90    74    73    1
    91    74    77    1
    92    65    66    1
    93    73    67   am
    94    96    97    1
    95    96    93    1
    96    67    66    1
    97    67    68    2
    98    85    86    1
    99    77    78    1
   100    77    79    1
   101    66    69    1
   102    86    87    1
   103    86    89    1
   104    92    87   am
   105    92    93    1
   106    87    88    2
   107    93    94    1
   108    95    94    2
   109    89    90    1
   110    89    91    1
   111    71    70   ar
   112    94    99   am
   113    69    70    1
   114    70    72   ar
   115    99   100    1
   116   146   145   ar
   117   100   101    1
   118   100   103    1
   119   145   147   ar
   120   145   144    1
   121   101   102    2
   122   114   112   ar
   123   105   104   ar
   124   113   112   ar
   125   112   111    1
   126   144   141    1
   127   104   103    1
   128   104   106   ar
   129   111   108    1
   130   110   109    2
   131   139   138    1
   132   109   108    1
   133   108   107    1
   134   132   131   ar
   135   141   140    1
   136   141   142    1
   137   129   128    2
   138   126   127    1
   139   140   136   am
   140   143   142    2
   141   138   135    1
   142   131   133   ar
   143   131   130    1
   144   136   135    1
   145   136   137    2
   146   128   127    1
   147   134   135    1
   148   127   130    1
   149   169   168    1
   150   167   168   ar
   151   167   165   ar
   152   168   166   ar
   153   165   163   ar
   154   166   164   ar
   155   163   164   ar
   156   163   162    1
   157   159   158    1
   158   159   162    1
   159   159   160    1
   160   160   161    2
