@<TRIPOS>MOLECULE
tmp/3c9tB01.pdb
 74 71 0 0 0
SMALL
GASTEIGER

@<TRIPOS>ATOM
      1  N         16.5940   61.9250  128.5020 N.3    86  LEU86      -0.1231
      2  CA        16.5440   60.5560  128.0360 C.3    86  LEU86       0.1693
      3  C         17.9480   60.0500  128.3040 C.2    86  LEU86       0.2591
      4  O         18.9250   60.8050  128.1830 O.2    86  LEU86      -0.2718
      5  CB        16.2610   60.4890  126.5420 C.3    86  LEU86       0.0284
      6  CG        14.8620   60.8390  126.0310 C.3    86  LEU86       0.0019
      7  CD1       14.8730   60.7770  124.5090 C.3    86  LEU86       0.0001
      8  CD2       13.8230   59.8720  126.5930 C.3    86  LEU86       0.0001
      9  N         18.0550   58.7850  128.6940 N.am   87  ILE87      -0.1980
     10  CA        19.3620   58.2170  128.9640 C.3    87  ILE87       0.1595
     11  C         19.5580   56.9960  128.0940 C.2    87  ILE87       0.2287
     12  O         18.7030   56.1210  128.0510 O.2    87  ILE87      -0.2864
     13  CB        19.5150   57.8110  130.4490 C.3    87  ILE87       0.0276
     14  CG1       19.1290   58.9830  131.3520 C.3    87  ILE87       0.0022
     15  CG2       20.9770   57.4290  130.7440 C.3    87  ILE87       0.0022
     16  CD1       19.2970   58.6960  132.8320 C.3    87  ILE87       0.0001
     17  N         22.0160   53.8670  127.5600 N.3    89  LEU89      -0.1245
     18  CA        23.0530   53.1220  128.2740 C.3    89  LEU89       0.1561
     19  C         23.6120   51.8750  127.5990 C.2    89  LEU89       0.2260
     20  O         22.8630   51.0230  127.1070 O.2    89  LEU89      -0.2867
     21  CB        22.5360   52.6790  129.6510 C.3    89  LEU89       0.0270
     22  CG        22.1510   53.6490  130.7680 C.3    89  LEU89       0.0019
     23  CD1       21.6190   52.8590  131.9510 C.3    89  LEU89       0.0001
     24  CD2       23.3670   54.4610  131.1740 C.3    89  LEU89       0.0001
     25  N         21.0130   55.0400  138.9760 N.3   104  TYR104     -0.1241
     26  CA        19.7610   55.7370  138.7480 C.3   104  TYR104      0.1605
     27  C         19.3020   56.5150  139.9730 C.2   104  TYR104      0.2264
     28  O         18.6230   57.5360  139.8460 O.2   104  TYR104     -0.2867
     29  CB        18.6840   54.7580  138.2640 C.3   104  TYR104      0.0534
     30  CG        18.6410   54.6810  136.7490 C.ar  104  TYR104     -0.0201
     31  CD1       18.1020   55.7300  136.0010 C.ar  104  TYR104     -0.0009
     32  CD2       19.2250   53.6120  136.0570 C.ar  104  TYR104     -0.0009
     33  CE1       18.1520   55.7260  134.6060 C.ar  104  TYR104      0.0417
     34  CE2       19.2800   53.5970  134.6640 C.ar  104  TYR104      0.0417
     35  CZ        18.7450   54.6610  133.9480 C.ar  104  TYR104      0.1957
     36  OH        18.8280   54.6910  132.5790 O.3   104  TYR104     -0.2866
     37  N         13.5900   62.4780  133.9650 N.3   118  VAL118     -0.1231
     38  CA        14.1110   61.4820  133.0350 C.3   118  VAL118      0.1692
     39  C         12.8950   60.6880  132.5590 C.2   118  VAL118      0.2592
     40  O         12.4320   59.7890  133.2540 O.2   118  VAL118     -0.2718
     41  CB        15.0950   60.5200  133.7180 C.3   118  VAL118      0.0266
     42  CG1       15.3800   59.3490  132.7990 C.3   118  VAL118      0.0020
     43  CG2       16.3900   61.2430  134.0460 C.3   118  VAL118      0.0020
     44  N         12.3880   61.0190  131.3730 N.am  119  VAL119     -0.1966
     45  CA        11.1920   60.3700  130.8360 C.3   119  VAL119      0.1727
     46  C         11.3810   59.1370  129.9640 C.2   119  VAL119      0.2617
     47  O         10.4000   58.6000  129.4390 O.2   119  VAL119     -0.2715
     48  CB        10.3470   61.3720  130.0300 C.3   119  VAL119      0.0290
     49  CG1        9.8070   62.4600  130.9500 C.3   119  VAL119      0.0023
     50  CG2       11.1870   61.9780  128.9280 C.3   119  VAL119      0.0023
     51  N         12.6270   58.6960  129.7940 N.am  120  GLY120     -0.1940
     52  CA        12.8750   57.5250  128.9730 C.3   120  GLY120      0.2014
     53  C         14.3300   57.3480  128.5840 C.2   120  GLY120      0.2639
     54  O         15.2210   58.0210  129.1160 O.2   120  GLY120     -0.2714
     55  N         14.5780   56.4400  127.6440 N.am  121  GLY121     -0.1939
     56  CA        15.9340   56.1960  127.2180 C.3   121  GLY121      0.2014
     57  C         16.0800   54.8980  126.4610 C.2   121  GLY121      0.2639
     58  O         15.1180   54.4000  125.8780 O.2   121  GLY121     -0.2714
     59  N         17.2850   54.3350  126.4830 N.am  122  ASN122     -0.1958
     60  CA        17.5500   53.1030  125.7590 C.3   122  ASN122      0.1819
     61  C         18.5520   52.1730  126.4510 C.2   122  ASN122      0.2621
     62  O         19.4230   52.6200  127.2020 O.2   122  ASN122     -0.2715
     63  CB        18.0400   53.4730  124.3530 C.3   122  ASN122      0.1195
     64  CG        18.1110   52.2870  123.4200 C.2   122  ASN122      0.2630
     65  OD1       19.1770   51.7130  123.2100 O.2   122  ASN122     -0.2716
     66  ND2       16.9700   51.9150  122.8500 N.am  122  ASN122     -0.0877
     67  N         18.4060   50.8730  126.1950 N.am  123  ILE123     -0.1977
     68  CA        19.2980   49.8530  126.7500 C.3   123  ILE123      0.1596
     69  C         19.9900   49.0590  125.6320 C.2   123  ILE123      0.2287
     70  O         19.4210   48.8070  124.5650 O.2   123  ILE123     -0.2864
     71  CB        18.5300   48.8310  127.6390 C.3   123  ILE123      0.0276
     72  CG1       18.0070   49.5080  128.9090 C.3   123  ILE123      0.0022
     73  CG2       19.4470   47.6660  128.0130 C.3   123  ILE123      0.0022
     74  CD1       19.0980   50.0730  129.8110 C.3   123  ILE123      0.0001
@<TRIPOS>BOND
     1    66    64   am
     2    65    64    2
     3    64    63    1
     4    63    60    1
     5     7     6    1
     6    70    69    2
     7    69    68    1
     8    60    61    1
     9    60    59    1
    10    58    57    2
    11     6     5    1
    12     6     8    1
    13    67    61   am
    14    67    68    1
    15    61    62    2
    16    57    59   am
    17    57    56    1
    18     5     2    1
    19    68    71    1
    20    20    19    2
    21    56    55    1
    22    17    18    1
    23    19    18    1
    24    71    73    1
    25    71    72    1
    26    55    53   am
    27     2     3    1
    28     2     1    1
    29    12    11    2
    30    11    10    1
    31     4     3    2
    32    18    21    1
    33     3     9   am
    34    53    52    1
    35    53    54    2
    36     9    10    1
    37    72    74    1
    38    50    48    1
    39    10    13    1
    40    52    51    1
    41    47    46    2
    42    21    22    1
    43    51    46   am
    44    46    45    1
    45    48    45    1
    46    48    49    1
    47    13    15    1
    48    13    14    1
    49    22    24    1
    50    22    23    1
    51    45    44    1
    52    14    16    1
    53    44    39   am
    54    39    38    1
    55    39    40    2
    56    36    35    1
    57    42    41    1
    58    38    41    1
    59    38    37    1
    60    41    43    1
    61    35    33   ar
    62    35    34   ar
    63    33    31   ar
    64    34    32   ar
    65    31    30   ar
    66    32    30   ar
    67    30    29    1
    68    29    26    1
    69    26    25    1
    70    26    27    1
    71    28    27    2
