@<TRIPOS>MOLECULE
tmp/3c9uB02.pdb
 181 175 0 0 0
SMALL
GASTEIGER

@<TRIPOS>ATOM
      1  N         41.0720   63.0980  118.9400 N.3    14  GLU14      -0.1245
      2  CA        39.6270   63.1260  119.1290 C.3    14  GLU14       0.1567
      3  C         38.9440   64.4130  118.6740 C.2    14  GLU14       0.2260
      4  O         37.8910   64.3700  118.0410 O.2    14  GLU14      -0.2867
      5  CB        39.3010   62.8670  120.5960 C.3    14  GLU14       0.0388
      6  CG        39.8900   63.8880  121.5310 C.3    14  GLU14       0.1160
      7  CD        39.7630   63.4720  122.9750 C.2    14  GLU14       0.3649
      8  OE1       38.6210   63.2650  123.4370 O.co2  14  GLU14      -0.2457
      9  OE2       40.8090   63.3470  123.6430 O.co2  14  GLU14      -0.2457
     10  N         27.1500   61.0410  127.5210 N.3    49  ASP49      -0.1225
     11  CA        28.4890   60.7730  128.0460 C.3    49  ASP49       0.1805
     12  C         28.4550   59.3140  128.4590 C.2    49  ASP49       0.2597
     13  O         27.3950   58.7890  128.8100 O.2    49  ASP49      -0.2718
     14  CB        28.7960   61.6350  129.2650 C.3    49  ASP49       0.1424
     15  CG        29.2790   63.0130  128.8940 C.2    49  ASP49       0.3668
     16  OD1       28.9220   63.9660  129.6090 O.co2  49  ASP49      -0.2456
     17  OD2       30.0210   63.1340  127.9040 O.co2  49  ASP49      -0.2456
     18  N         29.6190   58.6770  128.4580 N.am   50  VAL50      -0.1980
     19  CA        29.7120   57.2570  128.7540 C.3    50  VAL50       0.1595
     20  C         30.7620   56.9030  129.8010 C.2    50  VAL50       0.2287
     21  O         31.6400   57.7050  130.1150 O.2    50  VAL50      -0.2864
     22  CB        30.0560   56.4970  127.4440 C.3    50  VAL50       0.0276
     23  CG1       29.9830   54.9980  127.6390 C.3    50  VAL50       0.0022
     24  CG2       29.1310   56.9570  126.3380 C.3    50  VAL50       0.0022
     25  N         37.6210   50.0050  132.3240 N.3    54  GLY54      -0.1210
     26  CA        39.0330   50.1260  132.0070 C.3    54  GLY54       0.1956
     27  C         39.4140   51.5060  131.5070 C.2    54  GLY54       0.2612
     28  O         40.5950   51.8500  131.4530 O.2    54  GLY54      -0.2717
     29  N         38.4130   52.2990  131.1400 N.am   55  VAL55      -0.1965
     30  CA        38.6400   53.6490  130.6410 C.3    55  VAL55       0.1727
     31  C         38.2100   54.6860  131.6780 C.2    55  VAL55       0.2616
     32  O         38.9790   55.5840  132.0210 O.2    55  VAL55      -0.2715
     33  CB        37.8490   53.9030  129.3250 C.3    55  VAL55       0.0290
     34  CG1       38.0970   55.3180  128.8280 C.3    55  VAL55       0.0023
     35  CG2       38.2600   52.8930  128.2550 C.3    55  VAL55       0.0023
     36  N         36.9850   54.5410  132.1810 N.am   56  HIS56      -0.1959
     37  CA        36.4280   55.4690  133.1610 C.3    56  HIS56       0.1787
     38  C         36.2910   54.9210  134.5680 C.2    56  HIS56       0.2620
     39  O         36.1310   55.6900  135.5140 O.2    56  HIS56      -0.2715
     40  CB        35.0340   55.9290  132.7380 C.3    56  HIS56       0.0785
     41  CG        34.9900   56.5920  131.4020 C.ar   56  HIS56       0.0821
     42  ND1       34.9060   55.8880  130.2190 N.ar   56  HIS56      -0.2267
     43  CD2       35.0070   57.9020  131.0620 C.ar   56  HIS56       0.1154
     44  CE1       34.8680   56.7370  129.2080 C.ar   56  HIS56       0.1986
     45  NE2       34.9290   57.9660  129.6930 N.ar   56  HIS56      -0.2212
     46  N         36.3220   53.6010  134.7030 N.am   57  PHE57      -0.1960
     47  CA        36.1600   52.9670  136.0060 C.3    57  PHE57       0.1771
     48  C         36.6600   51.5280  135.9420 C.2    57  PHE57       0.2619
     49  O         37.0190   51.0360  134.8710 O.2    57  PHE57      -0.2715
     50  CB        34.6720   52.9790  136.4090 C.3    57  PHE57       0.0574
     51  CG        33.8120   52.0180  135.6140 C.ar   57  PHE57      -0.0200
     52  CD1       33.4860   50.7660  136.1290 C.ar   57  PHE57      -0.0042
     53  CD2       33.3600   52.3530  134.3400 C.ar   57  PHE57      -0.0042
     54  CE1       32.7260   49.8590  135.3890 C.ar   57  PHE57      -0.0003
     55  CE2       32.5980   51.4510  133.5910 C.ar   57  PHE57      -0.0003
     56  CZ        32.2820   50.2020  134.1180 C.ar   57  PHE57      -0.0000
     57  N         36.6870   50.8720  137.0990 N.am   58  LEU58      -0.1977
     58  CA        37.1040   49.4770  137.1970 C.3    58  LEU58       0.1596
     59  C         35.9450   48.6850  137.8050 C.2    58  LEU58       0.2287
     60  O         35.1850   49.2130  138.6140 O.2    58  LEU58      -0.2864
     61  CB        38.3510   49.3440  138.0780 C.3    58  LEU58       0.0297
     62  CG        39.6140   50.0520  137.5750 C.3    58  LEU58       0.0022
     63  CD1       40.7430   49.8410  138.5770 C.3    58  LEU58       0.0001
     64  CD2       40.0100   49.5130  136.2050 C.3    58  LEU58       0.0001
     65  N         35.0150   48.6700  141.6420 N.3    61  TYR61      -0.1241
     66  CA        34.3300   49.7630  142.3290 C.3    61  TYR61       0.1605
     67  C         32.8960   49.3470  142.6350 C.2    61  TYR61       0.2264
     68  O         32.2770   48.6200  141.8550 O.2    61  TYR61      -0.2867
     69  CB        34.2680   51.0240  141.4560 C.3    61  TYR61       0.0534
     70  CG        35.5820   51.6170  140.9920 C.ar   61  TYR61      -0.0201
     71  CD1       36.8110   51.1500  141.4640 C.ar   61  TYR61      -0.0009
     72  CD2       35.5900   52.6640  140.0680 C.ar   61  TYR61      -0.0009
     73  CE1       38.0110   51.7140  141.0190 C.ar   61  TYR61       0.0417
     74  CE2       36.7750   53.2330  139.6230 C.ar   61  TYR61       0.0417
     75  CZ        37.9840   52.7560  140.0980 C.ar   61  TYR61       0.1957
     76  OH        39.1530   53.3180  139.6350 O.3    61  TYR61      -0.2866
     77  N         26.7400   68.0580  132.0500 N.3    77  ASP77      -0.1239
     78  CA        26.7160   68.7480  130.7580 C.3    77  ASP77       0.1674
     79  C         25.4540   69.6050  130.6260 C.2    77  ASP77       0.2266
     80  O         25.5080   70.7180  130.1040 O.2    77  ASP77      -0.2867
     81  CB        26.7770   67.7480  129.5910 C.3    77  ASP77       0.1410
     82  CG        28.1900   67.5250  129.0720 C.2    77  ASP77       0.3668
     83  OD1       29.1260   68.2300  129.4980 O.co2  77  ASP77      -0.2456
     84  OD2       28.3720   66.6370  128.2150 O.co2  77  ASP77      -0.2456
     85  N         41.3200   59.3110  141.8400 N.3   170  LEU170     -0.1245
     86  CA        41.5880   58.2850  140.8370 C.3   170  LEU170      0.1561
     87  C         42.8790   57.5530  141.1900 C.2   170  LEU170      0.2260
     88  O         42.9240   56.3260  141.2460 O.2   170  LEU170     -0.2867
     89  CB        41.7240   58.9300  139.4530 C.3   170  LEU170      0.0270
     90  CG        42.3290   58.0580  138.3500 C.3   170  LEU170      0.0019
     91  CD1       41.3910   56.8990  138.0480 C.3   170  LEU170      0.0001
     92  CD2       42.5750   58.8940  137.1000 C.3   170  LEU170      0.0001
     93  N         43.5450   53.6030  142.1680 N.3   174  LEU174     -0.1245
     94  CA        44.4630   52.7570  141.4150 C.3   174  LEU174      0.1561
     95  C         45.5560   52.1460  142.2880 C.2   174  LEU174      0.2260
     96  O         46.2580   51.2280  141.8620 O.2   174  LEU174     -0.2867
     97  CB        45.0810   53.5560  140.2620 C.3   174  LEU174      0.0270
     98  CG        44.2150   53.6910  139.0000 C.3   174  LEU174      0.0019
     99  CD1       42.8060   54.1200  139.3580 C.3   174  LEU174      0.0001
    100  CD2       44.8520   54.6860  138.0500 C.3   174  LEU174      0.0001
    101  N         35.9650   61.6410  143.0420 N.3   191  HIS191     -0.1241
    102  CA        36.2160   60.9670  141.7730 C.3   191  HIS191      0.1621
    103  C         35.1320   59.9680  141.3890 C.2   191  HIS191      0.2264
    104  O         34.6370   59.9720  140.2590 O.2   191  HIS191     -0.2867
    105  CB        37.5490   60.2200  141.7990 C.3   191  HIS191      0.0745
    106  CG        37.7860   59.3990  140.5710 C.ar  191  HIS191      0.0817
    107  ND1       38.1810   59.9550  139.3730 N.ar  191  HIS191     -0.2268
    108  CD2       37.5870   58.0810  140.3270 C.ar  191  HIS191      0.1154
    109  CE1       38.2110   59.0160  138.4440 C.ar  191  HIS191      0.1986
    110  NE2       37.8540   57.8700  138.9970 N.ar  191  HIS191     -0.2212
    111  N         31.3790   72.6410  131.6820 N.3   213  ASP213     -0.1239
    112  CA        31.8890   71.9800  132.8730 C.3   213  ASP213      0.1674
    113  C         33.3080   71.5200  132.5650 C.2   213  ASP213      0.2266
    114  O         33.7220   71.4730  131.4030 O.2   213  ASP213     -0.2867
    115  CB        31.0060   70.7970  133.3180 C.3   213  ASP213      0.1410
    116  CG        30.8710   69.7260  132.2660 C.2   213  ASP213      0.3668
    117  OD1       30.5270   68.5800  132.6260 O.co2 213  ASP213     -0.2456
    118  OD2       31.0890   70.0330  131.0890 O.co2 213  ASP213     -0.2456
    119  N         35.6960   68.5280  132.5590 N.3   215  SER215     -0.1202
    120  CA        35.7600   67.0750  132.6530 C.3   215  SER215      0.2020
    121  C         37.1210   66.5160  132.2660 C.2   215  SER215      0.2618
    122  O         37.5010   65.4490  132.7330 O.2   215  SER215     -0.2717
    123  CB        34.6610   66.4300  131.7960 C.3   215  SER215      0.2103
    124  OG        34.6690   66.9290  130.4730 O.3   215  SER215     -0.2182
    125  N         37.8600   67.2380  131.4260 N.am  216  ASP216     -0.1973
    126  CA        39.1820   66.7810  131.0000 C.3   216  ASP216      0.1709
    127  C         40.3250   67.4920  131.7120 C.2   216  ASP216      0.2293
    128  O         41.4350   66.9640  131.7970 O.2   216  ASP216     -0.2864
    129  CB        39.3500   66.9640  129.4890 C.3   216  ASP216      0.1436
    130  CG        38.4360   66.0670  128.6920 C.2   216  ASP216      0.3671
    131  OD1       38.2420   64.9090  129.1170 O.co2 216  ASP216     -0.2456
    132  OD2       37.9270   66.5120  127.6420 O.co2 216  ASP216     -0.2456
    133  N         41.4590   65.8320  135.7640 N.3   265  GLY265     -0.1210
    134  CA        40.1490   65.7740  135.1440 C.3   265  GLY265      0.1956
    135  C         39.0640   65.1940  136.0300 C.2   265  GLY265      0.2611
    136  O         39.2940   64.8400  137.1890 O.2   265  GLY265     -0.2717
    137  N         37.8630   65.1200  135.4720 N.am  266  GLU266     -0.1979
    138  CA        36.7030   64.5660  136.1570 C.3   266  GLU266      0.1602
    139  C         36.2610   65.2170  137.4620 C.2   266  GLU266      0.2287
    140  O         35.7000   64.5480  138.3260 O.2   266  GLU266     -0.2864
    141  CB        36.9050   63.0660  136.3810 C.3   266  GLU266      0.0415
    142  CG        36.8680   62.2470  135.1000 C.3   266  GLU266      0.1163
    143  CD        37.2000   60.7920  135.3450 C.2   266  GLU266      0.3649
    144  OE1       38.3780   60.4990  135.6340 O.co2 266  GLU266     -0.2457
    145  OE2       36.2820   59.9420  135.2650 O.co2 266  GLU266     -0.2457
    146  N         34.2160   67.8000  137.3680 N.3   268  TYR268     -0.1241
    147  CA        32.8590   68.2010  137.0220 C.3   268  TYR268      0.1605
    148  C         32.3980   69.4430  137.7650 C.2   268  TYR268      0.2264
    149  O         31.2920   69.5050  138.3020 O.2   268  TYR268     -0.2867
    150  CB        31.8760   67.0370  137.2120 C.3   268  TYR268      0.0534
    151  CG        32.1710   65.9090  136.2510 C.ar  268  TYR268     -0.0201
    152  CD1       32.9160   64.8050  136.6570 C.ar  268  TYR268     -0.0009
    153  CD2       31.7970   65.9930  134.9080 C.ar  268  TYR268     -0.0009
    154  CE1       33.2890   63.8160  135.7600 C.ar  268  TYR268      0.0417
    155  CE2       32.1700   65.0090  133.9970 C.ar  268  TYR268      0.0417
    156  CZ        32.9170   63.9250  134.4330 C.ar  268  TYR268      0.1957
    157  OH        33.3120   62.9610  133.5350 O.3   268  TYR268     -0.2866
    158  N         42.7750   65.2710  129.5200 N.3   309  TRP309     -0.1241
    159  CA        42.6100   63.8860  129.1080 C.3   309  TRP309      0.1605
    160  C         42.2600   63.7290  127.6370 C.2   309  TRP309      0.2264
    161  O         41.4190   64.4520  127.0940 O.2   309  TRP309     -0.2867
    162  CB        41.5410   63.1970  129.9670 C.3   309  TRP309      0.0550
    163  CG        41.0130   61.9260  129.3570 C.ar  309  TRP309      0.0003
    164  CD1       40.0730   61.8200  128.3710 C.ar  309  TRP309      0.0946
    165  CD2       41.4200   60.5870  129.6670 C.ar  309  TRP309      0.0152
    166  NE1       39.8710   60.5030  128.0470 N.ar  309  TRP309     -0.2442
    167  CE2       40.6820   59.7220  128.8250 C.ar  309  TRP309      0.0810
    168  CE3       42.3340   60.0320  130.5720 C.ar  309  TRP309      0.0012
    169  CZ2       40.8310   58.3310  128.8620 C.ar  309  TRP309      0.0191
    170  CZ3       42.4830   58.6470  130.6070 C.ar  309  TRP309      0.0001
    171  CH2       41.7340   57.8150  129.7560 C.ar  309  TRP309      0.0015
    172  N         41.3810   60.6750  124.6110 N.3   311  HIS311     -0.1241
    173  CA        41.0360   59.2890  124.3430 C.3   311  HIS311      0.1621
    174  C         42.0200   58.7540  123.3160 C.2   311  HIS311      0.2264
    175  O         42.3720   57.5760  123.3350 O.2   311  HIS311     -0.2867
    176  CB        39.6050   59.1770  123.8200 C.3   311  HIS311      0.0745
    177  CG        38.5680   59.2470  124.8980 C.ar  311  HIS311      0.0817
    178  ND1       37.8850   60.4040  125.2080 N.ar  311  HIS311     -0.2268
    179  CD2       38.1280   58.3060  125.7650 C.ar  311  HIS311      0.1154
    180  CE1       37.0680   60.1700  126.2190 C.ar  311  HIS311      0.1986
    181  NE2       37.1960   58.9050  126.5760 N.ar  311  HIS311     -0.2212
@<TRIPOS>BOND
     1     4     3    2
     2     3     2    1
     3     1     2    1
     4     2     5    1
     5     5     6    1
     6     6     7    1
     7     7     8   ar
     8     7     9   ar
     9   174   175    2
    10   174   173    1
    11   176   173    1
    12   176   177    1
    13   173   172    1
    14   177   178   ar
    15   177   179   ar
    16   178   180   ar
    17   179   181   ar
    18   180   181   ar
    19    24    22    1
    20   161   160    2
    21    22    23    1
    22    22    19    1
    23    10    11    1
    24   160   159    1
    25   132   130   ar
    26    17    15   ar
    27    11    12    1
    28    11    14    1
    29   166   164   ar
    30   166   167   ar
    31    84    82   ar
    32    35    33    1
    33   164   163   ar
    34    18    12   am
    35    18    19    1
    36    12    13    2
    37   130   131   ar
    38   130   129    1
    39    19    20    1
    40   167   169   ar
    41   167   165   ar
    42    34    33    1
    43   169   171   ar
    44    15    14    1
    45    15    16   ar
    46    82    83   ar
    47    82    81    1
    48   159   158    1
    49   159   162    1
    50    44    45   ar
    51    44    42   ar
    52    33    30    1
    53   163   165   ar
    54   163   162    1
    55   129   126    1
    56    81    78    1
    57   165   168   ar
    58    45    43   ar
    59   171   170   ar
    60    20    21    2
    61    80    79    2
    62    42    41   ar
    63   124   123    1
    64   168   170   ar
    65    79    78    1
    66    30    29    1
    67    30    31    1
    68    78    77    1
    69   126   125    1
    70   126   127    1
    71    43    41   ar
    72   118   116   ar
    73    29    27   am
    74    41    40    1
    75   114   113    2
    76   125   121   am
    77    28    27    2
    78    27    26    1
    79    31    32    2
    80    31    36   am
    81   111   112    1
    82   127   128    2
    83   123   120    1
    84    26    25    1
    85    36    37    1
    86   121   120    1
    87   121   122    2
    88   116   117   ar
    89   116   115    1
    90   119   120    1
    91   113   112    1
    92    40    37    1
    93   112   115    1
    94    37    38    1
    95   157   156    1
    96    55    56   ar
    97    55    53   ar
    98   155   156   ar
    99   155   153   ar
   100    56    54   ar
   101    53    51   ar
   102   156   154   ar
   103    38    46   am
   104    38    39    2
   105    46    47    1
   106    49    48    2
   107   153   151   ar
   108   142   143    1
   109   142   141    1
   110   134   133    1
   111   134   135    1
   112   145   143   ar
   113   143   144   ar
   114    54    52   ar
   115   137   135   am
   116   137   138    1
   117    51    52   ar
   118    51    50    1
   119   154   152   ar
   120    48    47    1
   121    48    57   am
   122    47    50    1
   123   135   136    2
   124   138   141    1
   125   138   139    1
   126    64    62    1
   127   151   152   ar
   128   151   150    1
   129   147   150    1
   130   147   146    1
   131   147   148    1
   132    57    58    1
   133    92    90    1
   134    58    59    1
   135    58    61    1
   136   139   140    2
   137    62    61    1
   138    62    63    1
   139   148   149    2
   140    59    60    2
   141    91    90    1
   142   100    98    1
   143    90    89    1
   144   109   110   ar
   145   109   107   ar
   146   110   108   ar
   147    98    99    1
   148    98    97    1
   149   107   106   ar
   150    89    86    1
   151    74    72   ar
   152    74    75   ar
   153    76    75    1
   154    72    70   ar
   155    75    73   ar
   156   104   103    2
   157    97    94    1
   158   108   106   ar
   159   106   105    1
   160    86    87    1
   161    86    85    1
   162    70    69    1
   163    70    71   ar
   164    73    71   ar
   165    87    88    2
   166   103   102    1
   167    94    93    1
   168    94    95    1
   169    69    66    1
   170    65    66    1
   171   102   105    1
   172   102   101    1
   173    68    67    2
   174    96    95    2
   175    66    67    1
