@<TRIPOS>MOLECULE
tmp/3c9uB00.pdb
 157 148 0 0 0
SMALL
GASTEIGER

@<TRIPOS>ATOM
      1  N         41.0720   63.0980  118.9400 N.3    14  GLU14      -0.1231
      2  CA        39.6270   63.1260  119.1290 C.3    14  GLU14       0.1699
      3  C         38.9440   64.4130  118.6740 C.2    14  GLU14       0.2592
      4  O         37.8910   64.3700  118.0410 O.2    14  GLU14      -0.2718
      5  CB        39.3010   62.8670  120.5960 C.3    14  GLU14       0.0402
      6  CG        39.8900   63.8880  121.5310 C.3    14  GLU14       0.1161
      7  CD        39.7630   63.4720  122.9750 C.2    14  GLU14       0.3649
      8  OE1       38.6210   63.2650  123.4370 O.co2  14  GLU14      -0.2457
      9  OE2       40.8090   63.3470  123.6430 O.co2  14  GLU14      -0.2457
     10  N         39.5290   65.5640  118.9880 N.am   15  PHE15      -0.1976
     11  CA        38.8920   66.8090  118.5950 C.3    15  PHE15       0.1639
     12  C         38.9930   67.0950  117.1050 C.2    15  PHE15       0.2290
     13  O         38.0980   67.7150  116.5280 O.2    15  PHE15      -0.2864
     14  CB        39.4190   67.9530  119.4640 C.3    15  PHE15       0.0560
     15  CG        39.0560   67.7880  120.9120 C.ar   15  PHE15      -0.0200
     16  CD1       40.0180   67.4660  121.8610 C.ar   15  PHE15      -0.0042
     17  CD2       37.7230   67.8550  121.3070 C.ar   15  PHE15      -0.0042
     18  CE1       39.6540   67.2050  123.1850 C.ar   15  PHE15      -0.0003
     19  CE2       37.3480   67.5960  122.6230 C.ar   15  PHE15      -0.0003
     20  CZ        38.3160   67.2690  123.5640 C.ar   15  PHE15      -0.0000
     21  N         36.1830   65.1200  115.7410 N.3    18  ILE18      -0.1245
     22  CA        34.8890   65.7690  115.9290 C.3    18  ILE18       0.1561
     23  C         34.7180   66.8730  114.8910 C.2    18  ILE18       0.2260
     24  O         33.6290   67.0640  114.3600 O.2    18  ILE18      -0.2867
     25  CB        34.7520   66.3420  117.3590 C.3    18  ILE18       0.0252
     26  CG1       34.6360   65.1820  118.3560 C.3    18  ILE18       0.0019
     27  CG2       33.5210   67.2450  117.4590 C.3    18  ILE18       0.0019
     28  CD1       34.6700   65.5970  119.8140 C.3    18  ILE18       0.0001
     29  N         33.6180   65.2520  111.8120 N.3    21  ILE21      -0.1245
     30  CA        32.2400   64.8060  111.9500 C.3    21  ILE21       0.1561
     31  C         31.2890   65.9790  111.7540 C.2    21  ILE21       0.2260
     32  O         30.2990   65.8740  111.0300 O.2    21  ILE21      -0.2867
     33  CB        31.9980   64.1830  113.3400 C.3    21  ILE21       0.0252
     34  CG1       32.7480   62.8540  113.4470 C.3    21  ILE21       0.0019
     35  CG2       30.5030   63.9800  113.5720 C.3    21  ILE21       0.0019
     36  CD1       32.6970   62.2230  114.8280 C.3    21  ILE21       0.0001
     37  N         28.5620   66.3650  108.6980 N.3    25  LEU25      -0.1245
     38  CA        27.1360   66.5300  108.9600 C.3    25  LEU25       0.1561
     39  C         26.6500   67.9350  108.6150 C.2    25  LEU25       0.2260
     40  O         25.4440   68.2020  108.6440 O.2    25  LEU25      -0.2867
     41  CB        26.8430   66.2660  110.4380 C.3    25  LEU25       0.0270
     42  CG        26.9860   64.8450  110.9890 C.3    25  LEU25       0.0019
     43  CD1       26.9150   64.8920  112.5090 C.3    25  LEU25       0.0001
     44  CD2       25.8880   63.9520  110.4250 C.3    25  LEU25       0.0001
     45  N         26.7300   71.4870  116.7710 N.3    30  ILE30      -0.1231
     46  CA        27.7980   70.7810  117.4780 C.3    30  ILE30       0.1692
     47  C         28.8790   71.7350  117.9840 C.2    30  ILE30       0.2593
     48  O         29.2540   72.6890  117.2990 O.2    30  ILE30      -0.2718
     49  CB        28.4390   69.6960  116.5670 C.3    30  ILE30       0.0266
     50  CG1       27.4540   68.5350  116.3890 C.3    30  ILE30       0.0019
     51  CG2       29.7580   69.2040  117.1570 C.3    30  ILE30       0.0020
     52  CD1       27.9130   67.4650  115.4080 C.3    30  ILE30       0.0001
     53  N         29.3720   71.4800  119.1930 N.am   31  GLY31      -0.1942
     54  CA        30.4120   72.3250  119.7510 C.3    31  GLY31       0.2014
     55  C         30.2670   72.6380  121.2300 C.2    31  GLY31       0.2639
     56  O         31.2330   73.0350  121.8790 O.2    31  GLY31      -0.2714
     57  N         29.0670   72.4600  121.7680 N.am   32  ASP32      -0.1957
     58  CA        28.8240   72.7480  123.1780 C.3    32  ASP32       0.1840
     59  C         28.5570   71.4880  123.9930 C.2    32  ASP32       0.2622
     60  O         28.4030   70.3980  123.4380 O.2    32  ASP32      -0.2715
     61  CB        27.6510   73.7240  123.3040 C.3    32  ASP32       0.1450
     62  CG        27.9630   75.0780  122.6950 C.2    32  ASP32       0.3671
     63  OD1       27.1290   75.5950  121.9230 O.co2  32  ASP32      -0.2456
     64  OD2       29.0470   75.6220  122.9890 O.co2  32  ASP32      -0.2456
     65  N         28.4920   71.6550  125.3110 N.am   33  ASP33      -0.1957
     66  CA        28.2630   70.5520  126.2430 C.3    33  ASP33       0.1840
     67  C         26.9640   69.8180  125.9720 C.2    33  ASP33       0.2623
     68  O         26.8190   68.6430  126.3090 O.2    33  ASP33      -0.2715
     69  CB        28.2820   71.0970  127.6650 C.3    33  ASP33       0.1450
     70  CG        29.5290   71.9000  127.9400 C.2    33  ASP33       0.3671
     71  OD1       30.4560   71.3770  128.5860 O.co2  33  ASP33      -0.2456
     72  OD2       29.5930   73.0520  127.4770 O.co2  33  ASP33      -0.2456
     73  N         26.0170   70.5220  125.3690 N.am   34  THR34      -0.1937
     74  CA        24.7330   69.9440  125.0210 C.3    34  THR34       0.2028
     75  C         24.3490   70.4790  123.6510 C.2    34  THR34       0.2642
     76  O         24.9750   71.4120  123.1440 O.2    34  THR34      -0.2714
     77  CB        23.6340   70.3640  126.0110 C.3    34  THR34       0.1808
     78  OG1       22.4180   69.6750  125.6990 O.3    34  THR34      -0.2208
     79  CG2       23.3920   71.8600  125.9250 C.3    34  THR34       0.0379
     80  N         23.3330   69.8700  123.0530 N.am   35  ALA35      -0.1977
     81  CA        22.8230   70.3220  121.7690 C.3    35  ALA35       0.1597
     82  C         21.4720   70.9580  122.0780 C.2    35  ALA35       0.2287
     83  O         20.5440   70.2820  122.5300 O.2    35  ALA35      -0.2864
     84  CB        22.6480   69.1450  120.8170 C.3    35  ALA35       0.0319
     85  N         22.2690   65.5280  125.4020 N.3    47  THR47      -0.1203
     86  CA        23.6620   65.1740  125.6020 C.3    47  THR47       0.1994
     87  C         23.8450   63.6980  125.9370 C.2    47  THR47       0.2619
     88  O         22.9090   63.0130  126.3560 O.2    47  THR47      -0.2717
     89  CB        24.2940   66.0190  126.7320 C.3    47  THR47       0.1784
     90  OG1       25.6870   65.7060  126.8380 O.3    47  THR47      -0.2211
     91  CG2       23.6140   65.7310  128.0600 C.3    47  THR47       0.0376
     92  N         25.0650   63.2160  125.7270 N.am   48  THR48      -0.1938
     93  CA        25.4230   61.8390  126.0400 C.3    48  THR48       0.2028
     94  C         26.8990   61.7330  126.4130 C.2    48  THR48       0.2642
     95  O         27.7680   62.2770  125.7270 O.2    48  THR48      -0.2714
     96  CB        25.1330   60.8750  124.8570 C.3    48  THR48       0.1808
     97  OG1       25.6230   59.5640  125.1810 O.3    48  THR48      -0.2208
     98  CG2       25.8080   61.3530  123.5800 C.3    48  THR48       0.0379
     99  N         27.1500   61.0410  127.5210 N.am   49  ASP49      -0.1971
    100  CA        28.4890   60.7730  128.0460 C.3    49  ASP49       0.1709
    101  C         28.4550   59.3140  128.4590 C.2    49  ASP49       0.2293
    102  O         27.3950   58.7890  128.8100 O.2    49  ASP49      -0.2864
    103  CB        28.7960   61.6350  129.2650 C.3    49  ASP49       0.1436
    104  CG        29.2790   63.0130  128.8940 C.2    49  ASP49       0.3671
    105  OD1       28.9220   63.9660  129.6090 O.co2  49  ASP49      -0.2456
    106  OD2       30.0210   63.1340  127.9040 O.co2  49  ASP49      -0.2456
    107  N         26.7400   68.0580  132.0500 N.3    77  ASP77      -0.1239
    108  CA        26.7160   68.7480  130.7580 C.3    77  ASP77       0.1674
    109  C         25.4540   69.6050  130.6260 C.2    77  ASP77       0.2266
    110  O         25.5080   70.7180  130.1040 O.2    77  ASP77      -0.2867
    111  CB        26.7770   67.7480  129.5910 C.3    77  ASP77       0.1410
    112  CG        28.1900   67.5250  129.0720 C.2    77  ASP77       0.3668
    113  OD1       29.1260   68.2300  129.4980 O.co2  77  ASP77      -0.2456
    114  OD2       28.3720   66.6370  128.2150 O.co2  77  ASP77      -0.2456
    115  N         29.3990   77.5960  124.9800 N.3   148  ARG148     -0.1245
    116  CA        30.8020   77.9920  125.0810 C.3   148  ARG148      0.1563
    117  C         31.1390   79.2360  124.2770 C.2   148  ARG148      0.2260
    118  O         32.2500   79.7590  124.3640 O.2   148  ARG148     -0.2867
    119  CB        31.7000   76.8400  124.6420 C.3   148  ARG148      0.0307
    120  CG        31.4940   75.5890  125.4600 C.3   148  ARG148      0.0489
    121  CD        32.3370   74.4540  124.9380 C.3   148  ARG148      0.2205
    122  NE        32.0450   73.2170  125.6510 N.pl3 148  ARG148     -0.0865
    123  CZ        32.6150   72.0500  125.3790 C.cat 148  ARG148      0.5346
    124  NH1       33.5120   71.9560  124.4040 N.pl3 148  ARG148      0.1354
    125  NH2       32.2870   70.9790  126.0850 N.pl3 148  ARG148      0.1354
    126  N         31.3790   72.6410  131.6820 N.3   213  ASP213     -0.1239
    127  CA        31.8890   71.9800  132.8730 C.3   213  ASP213      0.1674
    128  C         33.3080   71.5200  132.5650 C.2   213  ASP213      0.2266
    129  O         33.7220   71.4730  131.4030 O.2   213  ASP213     -0.2867
    130  CB        31.0060   70.7970  133.3180 C.3   213  ASP213      0.1410
    131  CG        30.8710   69.7260  132.2660 C.2   213  ASP213      0.3668
    132  OD1       30.5270   68.5800  132.6260 O.co2 213  ASP213     -0.2456
    133  OD2       31.0890   70.0330  131.0890 O.co2 213  ASP213     -0.2456
    134  N         35.6960   68.5280  132.5590 N.3   215  SER215     -0.1202
    135  CA        35.7600   67.0750  132.6530 C.3   215  SER215      0.2020
    136  C         37.1210   66.5160  132.2660 C.2   215  SER215      0.2618
    137  O         37.5010   65.4490  132.7330 O.2   215  SER215     -0.2717
    138  CB        34.6610   66.4300  131.7960 C.3   215  SER215      0.2103
    139  OG        34.6690   66.9290  130.4730 O.3   215  SER215     -0.2182
    140  N         37.8600   67.2380  131.4260 N.am  216  ASP216     -0.1973
    141  CA        39.1820   66.7810  131.0000 C.3   216  ASP216      0.1709
    142  C         40.3250   67.4920  131.7120 C.2   216  ASP216      0.2293
    143  O         41.4350   66.9640  131.7970 O.2   216  ASP216     -0.2864
    144  CB        39.3500   66.9640  129.4890 C.3   216  ASP216      0.1436
    145  CG        38.4360   66.0670  128.6920 C.2   216  ASP216      0.3671
    146  OD1       38.2420   64.9090  129.1170 O.co2 216  ASP216     -0.2456
    147  OD2       37.9270   66.5120  127.6420 O.co2 216  ASP216     -0.2456
    148  N         38.8660   75.1020  124.9690 N.3   224  HIS224     -0.1241
    149  CA        37.6660   74.9510  124.1470 C.3   224  HIS224      0.1621
    150  C         36.8140   76.2080  124.2340 C.2   224  HIS224      0.2264
    151  O         36.2940   76.6910  123.2260 O.2   224  HIS224     -0.2867
    152  CB        36.8200   73.7630  124.6170 C.3   224  HIS224      0.0745
    153  CG        37.4760   72.4310  124.4320 C.ar  224  HIS224      0.0817
    154  ND1       37.9880   72.0110  123.2230 N.ar  224  HIS224     -0.2268
    155  CD2       37.6610   71.4050  125.2960 C.ar  224  HIS224      0.1154
    156  CE1       38.4580   70.7820  123.3500 C.ar  224  HIS224      0.1986
    157  NE2       38.2700   70.3920  124.5980 N.ar  224  HIS224     -0.2212
@<TRIPOS>BOND
     1    39    40    2
     2    39    38    1
     3    37    38    1
     4    38    41    1
     5    44    42    1
     6    41    42    1
     7    42    43    1
     8    32    31    2
     9    31    30    1
    10    29    30    1
    11    30    33    1
    12    33    34    1
    13    33    35    1
    14    34    36    1
    15    24    23    2
    16    23    22    1
    17    52    50    1
    18    21    22    1
    19    22    25    1
    20    50    49    1
    21    13    12    2
    22    49    51    1
    23    49    46    1
    24    45    46    1
    25    12    11    1
    26    48    47    2
    27    25    27    1
    28    25    26    1
    29    46    47    1
    30    47    53   am
    31     4     3    2
    32    26    28    1
    33    11    10    1
    34    11    14    1
    35     3    10   am
    36     3     2    1
    37     1     2    1
    38     2     5    1
    39    53    54    1
    40    14    15    1
    41    54    55    1
    42     5     6    1
    43    84    81    1
    44    15    17   ar
    45    15    16   ar
    46    55    57   am
    47    55    56    2
    48    17    19   ar
    49     6     7    1
    50    57    58    1
    51    81    82    1
    52    81    80    1
    53    16    18   ar
    54    63    62   ar
    55    82    83    2
    56    19    20   ar
    57    62    64   ar
    58    62    61    1
    59     7     8   ar
    60     7     9   ar
    61    80    75   am
    62    76    75    2
    63    58    61    1
    64    58    59    1
    65    18    20   ar
    66   154   156   ar
    67   154   153   ar
    68   151   150    2
    69   156   157   ar
    70    60    59    2
    71    98    96    1
    72    75    74    1
    73    59    65   am
    74   149   150    1
    75   149   152    1
    76   149   148    1
    77   117   118    2
    78   117   116    1
    79   124   123    1
    80   153   152    1
    81   153   155   ar
    82   157   155   ar
    83   119   116    1
    84   119   120    1
    85    96    97    1
    86    96    93    1
    87   121   120    1
    88   121   122    1
    89   115   116    1
    90    74    73    1
    91    74    77    1
    92    65    66    1
    93    73    67   am
    94   123   122    2
    95   123   125    1
    96    85    86    1
    97    86    87    1
    98    86    89    1
    99    78    77    1
   100    92    87   am
   101    92    93    1
   102    95    94    2
   103    79    77    1
   104    87    88    2
   105    67    66    1
   106    67    68    2
   107    93    94    1
   108    66    69    1
   109    94    99   am
   110    89    90    1
   111    89    91    1
   112    72    70   ar
   113    99   100    1
   114   147   145   ar
   115    69    70    1
   116   106   104   ar
   117    70    71   ar
   118   100   101    1
   119   100   103    1
   120   114   112   ar
   121   101   102    2
   122   145   146   ar
   123   145   144    1
   124   104   103    1
   125   104   105   ar
   126   112   113   ar
   127   112   111    1
   128   144   141    1
   129   111   108    1
   130   110   109    2
   131   139   138    1
   132   109   108    1
   133   108   107    1
   134   141   140    1
   135   141   142    1
   136   133   131   ar
   137   129   128    2
   138   140   136   am
   139   126   127    1
   140   142   143    2
   141   138   135    1
   142   131   132   ar
   143   131   130    1
   144   136   135    1
   145   136   137    2
   146   134   135    1
   147   128   127    1
   148   127   130    1
