@<TRIPOS>MOLECULE
tmp/3c9wA00.pdb
 152 141 0 0 0
SMALL
GASTEIGER

@<TRIPOS>ATOM
      1  N         33.5800    6.9560   -0.3140 N.3    24  ILE24      -0.1231
      2  CA        33.4420    5.8470    0.6390 C.3    24  ILE24       0.1692
      3  C         32.3930    4.8100    0.2270 C.2    24  ILE24       0.2592
      4  O         32.6780    3.6130    0.2370 O.2    24  ILE24      -0.2718
      5  CB        33.1020    6.3140    2.0570 C.3    24  ILE24       0.0266
      6  CG1       34.3390    6.8790    2.7440 C.3    24  ILE24       0.0019
      7  CG2       32.5210    5.1410    2.8690 C.3    24  ILE24       0.0020
      8  CD1       34.0420    7.5610    4.0570 C.3    24  ILE24       0.0001
      9  N         31.1850    5.2640   -0.1110 N.am   25  GLY25      -0.1957
     10  CA        30.0810    4.3520   -0.4390 C.3    25  GLY25       0.1869
     11  C         28.9920    4.9850   -1.2900 C.2    25  GLY25       0.2309
     12  O         29.0480    6.1870   -1.5900 O.2    25  GLY25      -0.2863
     13  N         28.3920    8.4400    0.0240 N.3    32  VAL32      -0.1245
     14  CA        29.1170    8.8460    1.2100 C.3    32  VAL32       0.1561
     15  C         30.5840    9.0980    0.8500 C.2    32  VAL32       0.2260
     16  O         31.2260    8.2680    0.2140 O.2    32  VAL32      -0.2867
     17  CB        28.9850    7.7920    2.3360 C.3    32  VAL32       0.0252
     18  CG1       29.6350    8.2750    3.6260 C.3    32  VAL32       0.0019
     19  CG2       27.5210    7.4690    2.5950 C.3    32  VAL32       0.0019
     20  N         32.5630   12.5670    7.6390 N.3    45  ALA45      -0.1245
     21  CA        31.8410   11.8610    6.5920 C.3    45  ALA45       0.1562
     22  C         30.7650   12.8020    6.0490 C.2    45  ALA45       0.2260
     23  O         30.1710   13.5800    6.8000 O.2    45  ALA45      -0.2867
     24  CB        31.2330   10.5760    7.1270 C.3    45  ALA45       0.0290
     25  N         27.3190   12.6890    3.5130 N.3    47  LYS47      -0.1245
     26  CA        26.3620   11.9050    2.7570 C.3    47  LYS47       0.1561
     27  C         25.5950   12.8500    1.8460 C.2    47  LYS47       0.2260
     28  O         24.9810   13.8030    2.3270 O.2    47  LYS47      -0.2867
     29  CB        25.4000   11.1870    3.7080 C.3    47  LYS47       0.0271
     30  CG        24.6840   10.0030    3.0860 C.3    47  LYS47       0.0035
     31  CD        23.3540    9.7060    3.7650 C.3    47  LYS47       0.0206
     32  CE        23.5390    9.0620    5.1320 C.3    47  LYS47       0.1093
     33  NZ        22.3090    9.1500    5.9820 N.3    47  LYS47      -0.1314
     34  N         25.2920    8.3840   15.9480 N.3    77  ILE77      -0.1245
     35  CA        25.9230    9.3230   15.0140 C.3    77  ILE77       0.1561
     36  C         25.0880   10.6050   15.0140 C.2    77  ILE77       0.2260
     37  O         23.8770   10.5450   14.8490 O.2    77  ILE77      -0.2867
     38  CB        26.0190    8.7090   13.5740 C.3    77  ILE77       0.0252
     39  CG1       27.0330    9.4500   12.6910 C.3    77  ILE77       0.0019
     40  CG2       24.6550    8.7430   12.8530 C.3    77  ILE77       0.0019
     41  CD1       28.4750    9.3040   13.0800 C.3    77  ILE77       0.0001
     42  N         28.6600   14.3420    9.1630 N.3    98  GLN98      -0.1231
     43  CA        28.6800   13.5950   10.4250 C.3    98  GLN98       0.1698
     44  C         30.1200   13.2370   10.7370 C.2    98  GLN98       0.2592
     45  O         30.9850   13.3670    9.8550 O.2    98  GLN98      -0.2718
     46  CB        27.8720   12.3050   10.3000 C.3    98  GLN98       0.0381
     47  CG        26.3850   12.4940   10.0710 C.3    98  GLN98       0.0905
     48  CD        25.7500   11.3360    9.3320 C.2    98  GLN98       0.2608
     49  OE1       26.2500   10.9110    8.2960 O.2    98  GLN98      -0.2717
     50  NE2       24.6320   10.8270    9.8540 N.am   98  GLN98      -0.0878
     51  N         30.3780   12.7770   11.9670 N.am   99  ASP99      -0.1960
     52  CA        31.7110   12.3120   12.3760 C.3    99  ASP99       0.1840
     53  C         32.1980   11.2180   11.4260 C.2    99  ASP99       0.2622
     54  O         31.4430   10.3070   11.0840 O.2    99  ASP99      -0.2715
     55  CB        31.6970   11.7290   13.8020 C.3    99  ASP99       0.1450
     56  CG        31.2060   12.7140   14.8580 C.2    99  ASP99       0.3671
     57  OD1       31.7740   13.8290   14.9620 O.co2  99  ASP99      -0.2456
     58  OD2       30.2610   12.3440   15.6070 O.co2  99  ASP99      -0.2456
     59  N         33.4540   11.3030   11.0020 N.am  100  LEU100     -0.1963
     60  CA        34.0520   10.2100   10.2440 C.3   100  LEU100      0.1728
     61  C         34.3180    9.1000   11.2340 C.2   100  LEU100      0.2616
     62  O         34.9510    9.3160   12.2630 O.2   100  LEU100     -0.2715
     63  CB        35.3420   10.6380    9.5200 C.3   100  LEU100      0.0311
     64  CG        35.9860    9.6720    8.4990 C.3   100  LEU100      0.0022
     65  CD1       34.9960    9.1160    7.4560 C.3   100  LEU100      0.0001
     66  CD2       37.2170   10.2950    7.8030 C.3   100  LEU100      0.0001
     67  N         33.7610    7.9320   10.9660 N.am  101  MET101     -0.1963
     68  CA        34.0480    6.7560   11.7670 C.3   101  MET101      0.1736
     69  C         35.0060    5.9330   10.9390 C.2   101  MET101      0.2616
     70  O         35.2870    6.2650    9.7850 O.2   101  MET101     -0.2715
     71  CB        32.7790    5.9670   12.0840 C.3   101  MET101      0.0427
     72  CG        31.7830    6.7060   12.9610 C.3   101  MET101      0.0599
     73  SD        32.4180    6.9330   14.6290 S.3   101  MET101     -0.1393
     74  CE        32.0210    5.3750   15.4110 C.3   101  MET101      0.0692
     75  N         35.5160    4.8570   11.5150 N.am  102  GLU102     -0.1963
     76  CA        36.6300    4.1680   10.8930 C.3   102  GLU102      0.1733
     77  C         36.2170    2.8910   10.1520 C.2   102  GLU102      0.2617
     78  O         36.8210    2.5330    9.1500 O.2   102  GLU102     -0.2715
     79  CB        37.7150    3.9520   11.9400 C.3   102  GLU102      0.0429
     80  CG        38.0050    5.2350   12.7810 C.3   102  GLU102      0.1163
     81  CD        38.6760    6.3790   11.9890 C.2   102  GLU102      0.3649
     82  OE1       38.0320    7.4500   11.8180 O.co2 102  GLU102     -0.2457
     83  OE2       39.8410    6.2110   11.5470 O.co2 102  GLU102     -0.2457
     84  N         35.1590    2.2350   10.6220 N.am  103  THR103     -0.1937
     85  CA        34.6340    1.0250    9.9780 C.3   103  THR103      0.2028
     86  C         33.1950    0.8260   10.4450 C.2   103  THR103      0.2642
     87  O         32.6590    1.6710   11.1580 O.2   103  THR103     -0.2714
     88  CB        35.5440   -0.2410   10.2610 C.3   103  THR103      0.1808
     89  OG1       34.9970   -1.4040    9.6220 O.3   103  THR103     -0.2208
     90  CG2       35.7290   -0.5030   11.7710 C.3   103  THR103      0.0379
     91  N         32.5660   -0.2730   10.0440 N.am  104  ASP104     -0.1971
     92  CA        31.2540   -0.6220   10.5760 C.3   104  ASP104      0.1709
     93  C         31.2130   -2.1030   10.9820 C.2   104  ASP104      0.2293
     94  O         32.0350   -2.8850   10.5230 O.2   104  ASP104     -0.2864
     95  CB        30.1590   -0.2760    9.5590 C.3   104  ASP104      0.1436
     96  CG        30.1350   -1.2230    8.3930 C.2   104  ASP104      0.3671
     97  OD1       29.7100   -2.3780    8.5730 O.co2 104  ASP104     -0.2456
     98  OD2       30.5350   -0.8350    7.2830 O.co2 104  ASP104     -0.2456
     99  N         31.4260   -4.8100    8.0490 N.3   107  LYS107     -0.1245
    100  CA        32.8080   -4.8870    7.5650 C.3   107  LYS107      0.1561
    101  C         33.6790   -5.6760    8.5430 C.2   107  LYS107      0.2260
    102  O         34.4240   -6.5780    8.1620 O.2   107  LYS107     -0.2867
    103  CB        33.3750   -3.4700    7.4260 C.3   107  LYS107      0.0271
    104  CG        34.3800   -3.2710    6.2950 C.3   107  LYS107      0.0035
    105  CD        33.7680   -2.5630    5.0610 C.3   107  LYS107      0.0206
    106  CE        33.6750   -1.0480    5.2530 C.3   107  LYS107      0.1093
    107  NZ        32.3730   -0.5240    4.7420 N.3   107  LYS107     -0.1314
    108  N         21.0160   -3.4100   12.1090 N.3   144  LYS144     -0.1245
    109  CA        21.7420   -4.4490   11.3840 C.3   144  LYS144      0.1561
    110  C         23.1970   -4.0440   11.4790 C.2   144  LYS144      0.2260
    111  O         23.4820   -2.8790   11.7660 O.2   144  LYS144     -0.2867
    112  CB        21.3000   -4.5300    9.9170 C.3   144  LYS144      0.0271
    113  CG        21.4140   -3.2330    9.1440 C.3   144  LYS144      0.0035
    114  CD        21.1240   -3.4530    7.6700 C.3   144  LYS144      0.0206
    115  CE        20.6230   -2.1820    7.0280 C.3   144  LYS144      0.1093
    116  NZ        20.2130   -2.4160    5.6200 N.3   144  LYS144     -0.1314
    117  N         25.5710   -3.2960    9.3680 N.3   146  SER146     -0.1202
    118  CA        26.0320   -2.1470    8.5580 C.3   146  SER146      0.2020
    119  C         25.6230   -0.7630    9.1130 C.2   146  SER146      0.2618
    120  O         26.2180    0.2520    8.7450 O.2   146  SER146     -0.2717
    121  CB        25.5950   -2.2930    7.1130 C.3   146  SER146      0.2103
    122  OG        24.1860   -2.3220    7.0630 O.3   146  SER146     -0.2182
    123  N         24.6320   -0.7230   10.0080 N.am  147  ASN147     -0.1974
    124  CA        24.2260    0.5300   10.6480 C.3   147  ASN147      0.1688
    125  C         24.9390    0.7710   11.9600 C.2   147  ASN147      0.2292
    126  O         24.6420    1.7360   12.6620 O.2   147  ASN147     -0.2864
    127  CB        22.7080    0.6110   10.8180 C.3   147  ASN147      0.1181
    128  CG        21.9770    0.8590    9.4750 C.2   147  ASN147      0.2629
    129  OD1       22.5560    1.4210    8.5280 O.2   147  ASN147     -0.2716
    130  ND2       20.7140    0.4160    9.3840 N.am  147  ASN147     -0.0877
    131  N         28.4290    1.7650   13.3460 N.3   149  LEU149     -0.1245
    132  CA        29.7020    2.3420   12.9920 C.3   149  LEU149      0.1561
    133  C         30.6650    2.3010   14.1630 C.2   149  LEU149      0.2260
    134  O         30.2790    2.4850   15.3320 O.2   149  LEU149     -0.2867
    135  CB        29.5010    3.7850   12.5220 C.3   149  LEU149      0.0270
    136  CG        28.4420    4.0410   11.4340 C.3   149  LEU149      0.0019
    137  CD1       28.3790    5.5250   11.0940 C.3   149  LEU149      0.0001
    138  CD2       28.7120    3.2150   10.1860 C.3   149  LEU149      0.0001
    139  N         23.6960    4.2370   13.4320 N.3   159  CYS159     -0.1221
    140  CA        23.5210    5.0810   12.2630 C.3   159  CYS159      0.1808
    141  C         22.2080    4.7680   11.5360 C.2   159  CYS159      0.2601
    142  O         21.5200    3.8090   11.8700 O.2   159  CYS159     -0.2717
    143  CB        24.7000    4.8670   11.3120 C.3   159  CYS159      0.0970
    144  SG        24.7450    6.0080    9.9260 S.3   159  CYS159     -0.0800
    145  N         21.8960    5.5870   10.5290 N.am  160  ASP160     -0.1973
    146  CA        20.7190    5.4660    9.6400 C.3   160  ASP160      0.1709
    147  C         19.3730    5.3070   10.3250 C.2   160  ASP160      0.2293
    148  O         18.9000    4.1950   10.5530 O.2   160  ASP160     -0.2864
    149  CB        20.8920    4.3950    8.5610 C.3   160  ASP160      0.1436
    150  CG        19.8240    4.4880    7.4660 C.2   160  ASP160      0.3671
    151  OD1       19.1060    5.5130    7.3620 O.co2 160  ASP160     -0.2456
    152  OD2       19.6990    3.5250    6.6950 O.co2 160  ASP160     -0.2456
@<TRIPOS>BOND
     1    12    11    2
     2    11    10    1
     3    10     9    1
     4     1     2    1
     5     9     3   am
     6    13    14    1
     7    16    15    2
     8     3     4    2
     9     3     2    1
    10     2     5    1
    11    15    14    1
    12    14    17    1
    13    27    28    2
    14    27    26    1
    15     5     6    1
    16     5     7    1
    17    17    19    1
    18    17    18    1
    19     6     8    1
    20    26    25    1
    21    26    29    1
    22    30    29    1
    23    30    31    1
    24    31    32    1
    25   107   106    1
    26   105   106    1
    27   105   104    1
    28    32    33    1
    29   116   115    1
    30    22    21    1
    31    22    23    2
    32   104   103    1
    33    21    24    1
    34    21    20    1
    35   152   150   ar
    36   115   114    1
    37   122   121    1
    38   121   118    1
    39    98    96   ar
    40   151   150   ar
    41   103   100    1
    42    65    64    1
    43   150   149    1
    44   100    99    1
    45   100   101    1
    46   114   113    1
    47    66    64    1
    48   102   101    2
    49    49    48    2
    50    96    97   ar
    51    96    95    1
    52    64    63    1
    53   129   128    2
    54   118   119    1
    55   118   117    1
    56   149   146    1
    57   120   119    2
    58   119   123   am
    59   113   112    1
    60    78    77    2
    61    42    43    1
    62    48    50   am
    63    48    47    1
    64   130   128   am
    65   128   127    1
    66    63    60    1
    67    95    92    1
    68    89    88    1
    69   146   147    1
    70   146   145    1
    71    70    69    2
    72    45    44    2
    73   112   109    1
    74   144   143    1
    75    85    88    1
    76    85    86    1
    77    85    84    1
    78   123   124    1
    79    91    86   am
    80    91    92    1
    81    47    46    1
    82    77    84   am
    83    77    76    1
    84   138   136    1
    85    60    59    1
    86    60    61    1
    87    88    90    1
    88    46    43    1
    89   147   148    2
    90    43    44    1
    91    86    87    2
    92    94    93    2
    93   145   141   am
    94    92    93    1
    95   124   127    1
    96   124   125    1
    97    44    51   am
    98    76    75    1
    99    76    79    1
   100    69    75   am
   101    69    68    1
   102    67    61   am
   103    67    68    1
   104    59    53   am
   105    54    53    2
   106   137   136    1
   107    61    62    2
   108   143   140    1
   109   109   110    1
   110   109   108    1
   111    53    52    1
   112   136   135    1
   113   110   111    2
   114   141   142    2
   115   141   140    1
   116    83    81   ar
   117    68    71    1
   118    82    81   ar
   119    79    80    1
   120   125   126    2
   121    51    52    1
   122    81    80    1
   123    71    72    1
   124   140   139    1
   125    52    55    1
   126   135   132    1
   127    39    41    1
   128    39    38    1
   129    40    38    1
   130    72    73    1
   131   132   131    1
   132   132   133    1
   133    38    35    1
   134    55    56    1
   135   133   134    2
   136    73    74    1
   137    37    36    2
   138    56    57   ar
   139    56    58   ar
   140    35    36    1
   141    35    34    1
