@<TRIPOS>MOLECULE
tmp/3ca1A04.pdb
 90 83 0 0 0
SMALL
GASTEIGER

@<TRIPOS>ATOM
      1  N         70.2920   12.5790   -2.8290 N.3   193  LYS193     -0.1245
      2  CA        70.5410   14.0250   -2.8640 C.3   193  LYS193      0.1561
      3  C         69.4860   14.8430   -3.6000 C.2   193  LYS193      0.2260
      4  O         69.6120   16.0920   -3.6690 O.2   193  LYS193     -0.2867
      5  CB        71.9810   14.3940   -3.3590 C.3   193  LYS193      0.0271
      6  CG        73.0470   14.0050   -2.3940 C.3   193  LYS193      0.0035
      7  CD        74.4020   14.7110   -2.6930 C.3   193  LYS193      0.0206
      8  CE        74.8630   14.5200   -4.0500 C.3   193  LYS193      0.1093
      9  NZ        76.0240   15.4720   -4.3320 N.3   193  LYS193     -0.1314
     10  N         66.7670   13.9270    5.2070 N.3   227  ASP227     -0.1239
     11  CA        68.1340   14.1730    5.6600 C.3   227  ASP227      0.1674
     12  C         68.4530   15.6400    5.5750 C.2   227  ASP227      0.2266
     13  O         68.2390   16.2620    4.5440 O.2   227  ASP227     -0.2867
     14  CB        69.0010   13.3150    4.7350 C.3   227  ASP227      0.1410
     15  CG        70.5090   13.4890    4.9250 C.2   227  ASP227      0.3668
     16  OD1       71.0050   14.5880    4.7660 O.co2 227  ASP227     -0.2456
     17  OD2       71.1910   12.4650    5.0880 O.co2 227  ASP227     -0.2456
     18  N         70.8030   18.1560    4.8300 N.3   229  ARG229     -0.1231
     19  CA        71.9690   18.0120    3.9470 C.3   229  ARG229      0.1694
     20  C         73.2420   18.4530    4.6330 C.2   229  ARG229      0.2592
     21  O         73.3320   19.5830    5.1700 O.2   229  ARG229     -0.2718
     22  CB        71.7950   18.7570    2.6460 C.3   229  ARG229      0.0321
     23  CG        72.9530   18.5290    1.6690 C.3   229  ARG229      0.0489
     24  CD        72.6970   19.3060    0.4140 C.3   229  ARG229      0.2205
     25  NE        73.8090   19.0630   -0.4940 N.pl3 229  ARG229     -0.0865
     26  CZ        73.7170   19.1660   -1.8070 C.cat 229  ARG229      0.5346
     27  NH1       72.5740   19.4860   -2.3790 N.pl3 229  ARG229      0.1354
     28  NH2       74.7860   18.9160   -2.5370 N.pl3 229  ARG229      0.1354
     29  N         74.2260   17.5600    4.5700 N.am  230  ALA230     -0.1966
     30  CA        75.5600   17.8150    5.1690 C.3   230  ALA230      0.1728
     31  C         75.5520   18.1810    6.6630 C.2   230  ALA230      0.2616
     32  O         76.5230   18.7560    7.1660 O.2   230  ALA230     -0.2715
     33  CB        76.3340   18.8770    4.2980 C.3   230  ALA230      0.0334
     34  N         74.5160   17.7800    7.4090 N.am  231  SER231     -0.1950
     35  CA        74.3510   18.1960    8.7960 C.3   231  SER231      0.1924
     36  C         74.5410   19.7190    8.9530 C.2   231  SER231      0.2314
     37  O         75.0770   20.1720    9.9540 O.2   231  SER231     -0.2863
     38  CB        75.2100   17.4300    9.7790 C.3   231  SER231      0.2116
     39  OG        74.9990   16.0380    9.6790 O.3   231  SER231     -0.2180
     40  N         67.1960   16.7570    1.8650 N.3   239  ILE239     -0.1245
     41  CA        67.3260   15.8580    0.7320 C.3   239  ILE239      0.1561
     42  C         66.8130   14.5030    1.1580 C.2   239  ILE239      0.2260
     43  O         66.5830   14.2470    2.3370 O.2   239  ILE239     -0.2867
     44  CB        68.8050   15.7390    0.2670 C.3   239  ILE239      0.0252
     45  CG1       69.7070   15.2640    1.4040 C.3   239  ILE239      0.0019
     46  CG2       69.2470   17.0800   -0.3800 C.3   239  ILE239      0.0019
     47  CD1       71.1040   14.8570    0.9500 C.3   239  ILE239      0.0001
     48  N         68.2410   10.6540    1.2390 N.3   241  PHE241     -0.1241
     49  CA        69.5440   10.0190    1.3050 C.3   241  PHE241      0.1605
     50  C         69.3780    8.6290    1.9220 C.2   241  PHE241      0.2264
     51  O         68.4870    8.3910    2.7480 O.2   241  PHE241     -0.2867
     52  CB        70.4610   10.9020    2.1460 C.3   241  PHE241      0.0534
     53  CG        71.9400   10.6430    1.9520 C.ar  241  PHE241     -0.0203
     54  CD1       72.5980   11.1200    0.8380 C.ar  241  PHE241     -0.0042
     55  CD2       72.6500    9.9390    2.8890 C.ar  241  PHE241     -0.0042
     56  CE1       73.9790   10.9210    0.6590 C.ar  241  PHE241     -0.0003
     57  CE2       74.0260    9.6840    2.6980 C.ar  241  PHE241     -0.0003
     58  CZ        74.6930   10.1640    1.5880 C.ar  241  PHE241     -0.0000
     59  N         71.2100    6.2540    7.5250 N.3   244  THR244     -0.1218
     60  CA        72.4680    6.0720    8.2470 C.3   244  THR244      0.1862
     61  C         72.3070    6.0040    9.7670 C.2   244  THR244      0.2287
     62  O         73.2630    5.6790   10.4880 O.2   244  THR244     -0.2866
     63  CB        73.3760    7.2550    7.9870 C.3   244  THR244      0.1770
     64  OG1       72.7330    8.4300    8.4590 O.3   244  THR244     -0.2211
     65  CG2       73.7690    7.4040    6.5020 C.3   244  THR244      0.0375
     66  N         72.1550    8.5890   11.5750 N.3   246  ASN246     -0.1240
     67  CA        72.8840    9.7670   12.1080 C.3   246  ASN246      0.1653
     68  C         71.8880   10.8440   12.5890 C.2   246  ASN246      0.2266
     69  O         70.7320   10.8260   12.1930 O.2   246  ASN246     -0.2867
     70  CB        73.8080   10.3190   11.0540 C.3   246  ASN246      0.1155
     71  CG        74.9770    9.4210   10.7830 C.2   246  ASN246      0.2627
     72  OD1       75.3380    8.5440   11.6220 O.2   246  ASN246     -0.2716
     73  ND2       75.5770    9.6200    9.6230 N.am  246  ASN246     -0.0877
     74  N         71.2750   13.8260   11.8070 N.3   248  ASN248     -0.1225
     75  CA        70.6190   14.6190   10.7490 C.3   248  ASN248      0.1785
     76  C         69.5440   13.8940    9.9810 C.2   248  ASN248      0.2597
     77  O         69.0120   14.4550    9.0150 O.2   248  ASN248     -0.2718
     78  CB        71.6420   15.2070    9.7750 C.3   248  ASN248      0.1169
     79  CG        72.2830   14.1590    8.9080 C.2   248  ASN248      0.2627
     80  OD1       72.6090   13.0500    9.4140 O.2   248  ASN248     -0.2716
     81  ND2       72.4970   14.4670    7.6170 N.am  248  ASN248     -0.0877
     82  N         69.2350   12.6640   10.3920 N.am  249  GLN249     -0.1979
     83  CA        68.1500   11.8590    9.8090 C.3   249  GLN249      0.1601
     84  C         67.1220   11.4040   10.8730 C.2   249  GLN249      0.2287
     85  O         66.2530   10.6060   10.5600 O.2   249  GLN249     -0.2864
     86  CB        68.6860   10.6090    9.1040 C.3   249  GLN249      0.0394
     87  CG        69.5310   10.9170    7.8820 C.3   249  GLN249      0.0908
     88  CD        69.9230    9.6550    7.1550 C.2   249  GLN249      0.2608
     89  OE1       69.6510    8.5720    7.6490 O.2   249  GLN249     -0.2717
     90  NE2       70.4950    9.7780    5.9790 N.am  249  GLN249     -0.0878
@<TRIPOS>BOND
     1     9     8    1
     2     8     7    1
     3     4     3    2
     4     3     2    1
     5     5     2    1
     6     5     6    1
     7     2     1    1
     8     7     6    1
     9    28    26    1
    10    27    26    1
    11    26    25    2
    12    25    24    1
    13    46    44    1
    14    44    41    1
    15    44    45    1
    16    24    23    1
    17    56    54   ar
    18    56    58   ar
    19    41    42    1
    20    41    40    1
    21    54    53   ar
    22    47    45    1
    23    42    43    2
    24    48    49    1
    25    49    50    1
    26    49    52    1
    27    58    57   ar
    28    23    22    1
    29    50    51    2
    30    53    52    1
    31    53    55   ar
    32    22    19    1
    33    57    55   ar
    34    19    20    1
    35    19    18    1
    36    33    30    1
    37    13    12    2
    38    29    20   am
    39    29    30    1
    40    20    21    2
    41    14    15    1
    42    14    11    1
    43    16    15   ar
    44    15    17   ar
    45    30    31    1
    46    10    11    1
    47    12    11    1
    48    90    88   am
    49    65    63    1
    50    31    32    2
    51    31    34   am
    52    88    89    2
    53    88    87    1
    54    34    35    1
    55    59    60    1
    56    81    79   am
    57    87    86    1
    58    63    60    1
    59    63    64    1
    60    60    61    1
    61    35    36    1
    62    35    38    1
    63    79    80    2
    64    79    78    1
    65    36    37    2
    66    77    76    2
    67    86    83    1
    68    73    71   am
    69    39    38    1
    70    61    62    2
    71    78    75    1
    72    83    82    1
    73    83    84    1
    74    76    82   am
    75    76    75    1
    76    85    84    2
    77    75    74    1
    78    71    70    1
    79    71    72    2
    80    70    67    1
    81    66    67    1
    82    67    68    1
    83    69    68    2
