@<TRIPOS>MOLECULE
tmp/3ca1A03.pdb
 89 85 0 0 0
SMALL
GASTEIGER

@<TRIPOS>ATOM
      1  N         34.4700    3.7530    1.6940 N.3    16  ASP16      -0.1225
      2  CA        33.0100    3.8510    1.8620 C.3    16  ASP16       0.1805
      3  C         32.3490    2.9230    0.8710 C.2    16  ASP16       0.2598
      4  O         32.6730    2.9250   -0.3180 O.2    16  ASP16      -0.2718
      5  CB        32.6690    5.3200    1.5860 C.3    16  ASP16       0.1424
      6  CG        31.1760    5.6710    1.6810 C.2    16  ASP16       0.3668
      7  OD1       30.4620    5.2680    0.7690 O.co2  16  ASP16      -0.2456
      8  OD2       30.7780    6.4440    2.6270 O.co2  16  ASP16      -0.2456
      9  N         31.4400    2.0770    1.3580 N.am   17  VAL17      -0.1966
     10  CA        30.6540    1.2080    0.4680 C.3    17  VAL17       0.1727
     11  C         29.5630    2.0960   -0.2040 C.2    17  VAL17       0.2616
     12  O         28.7310    2.7170    0.4740 O.2    17  VAL17      -0.2715
     13  CB        30.0310   -0.0110    1.1900 C.3    17  VAL17       0.0290
     14  CG1       29.3690   -0.9550    0.1130 C.3    17  VAL17       0.0023
     15  CG2       31.0750   -0.7560    2.0510 C.3    17  VAL17       0.0023
     16  N         29.6050    2.1610   -1.5360 N.am   18  ARG18      -0.1963
     17  CA        28.8880    3.2100   -2.3130 C.3    18  ARG18       0.1729
     18  C         27.3620    3.1830   -2.0340 C.2    18  ARG18       0.2616
     19  O         26.7220    2.0890   -2.1130 O.2    18  ARG18      -0.2715
     20  CB        29.1650    3.0100   -3.8090 C.3    18  ARG18       0.0348
     21  CG        28.7620    4.1500   -4.6860 C.3    18  ARG18       0.0492
     22  CD        29.3320    3.9650   -6.0790 C.3    18  ARG18       0.2205
     23  NE        29.1200    5.0620   -7.0300 N.pl3  18  ARG18      -0.0865
     24  CZ        30.0340    5.9280   -7.4580 C.cat  18  ARG18       0.5346
     25  NH1       29.7840    6.7470   -8.4490 N.pl3  18  ARG18       0.1354
     26  NH2       31.2440    5.9460   -6.9580 N.pl3  18  ARG18       0.1354
     27  N         26.8280    4.3650   -1.7000 N.am   19  ASN19      -0.1958
     28  CA        25.4190    4.5790   -1.3740 C.3    19  ASN19       0.1819
     29  C         24.9660    3.9410   -0.0800 C.2    19  ASN19       0.2621
     30  O         23.7740    4.0070    0.2780 O.2    19  ASN19      -0.2715
     31  CB        24.5070    4.1090   -2.5060 C.3    19  ASN19       0.1195
     32  CG        24.8550    4.7360   -3.8270 C.2    19  ASN19       0.2630
     33  OD1       25.0360    5.9530   -3.9480 O.2    19  ASN19      -0.2716
     34  ND2       25.0360    3.8760   -4.8170 N.am   19  ASN19      -0.0877
     35  N         25.8880    3.3300    0.6450 N.am   20  GLY20      -0.1954
     36  CA        25.5440    2.5170    1.8270 C.3    20  GLY20       0.1869
     37  C         24.8000    1.2480    1.5310 C.2    20  GLY20       0.2309
     38  O         24.2540    0.6360    2.4360 O.2    20  GLY20      -0.2863
     39  N         34.4100    3.1500   -2.5870 N.3    29  GLN29      -0.1245
     40  CA        34.7080    4.4600   -3.1120 C.3    29  GLN29       0.1566
     41  C         35.3240    5.3060   -1.9860 C.2    29  GLN29       0.2260
     42  O         35.2860    4.9370   -0.7880 O.2    29  GLN29      -0.2867
     43  CB        33.4490    5.1800   -3.6220 C.3    29  GLN29       0.0367
     44  CG        32.5090    5.5770   -2.5070 C.3    29  GLN29       0.0905
     45  CD        31.2500    6.2240   -2.9360 C.2    29  GLN29       0.2608
     46  OE1       31.0480    6.5000   -4.1260 O.2    29  GLN29      -0.2717
     47  NE2       30.3440    6.4730   -1.9500 N.am   29  GLN29      -0.0878
     48  N         34.7560    8.7510    0.1360 N.3    31  TRP31      -0.1241
     49  CA        33.6900    9.6390    0.5560 C.3    31  TRP31       0.1605
     50  C         34.1620   10.3530    1.8250 C.2    31  TRP31       0.2264
     51  O         34.9240    9.7860    2.6010 O.2    31  TRP31      -0.2867
     52  CB        32.4580    8.8370    0.8450 C.3    31  TRP31       0.0550
     53  CG        31.2150    9.6810    1.0470 C.ar   31  TRP31       0.0003
     54  CD1       30.5280    9.8910    2.2110 C.ar   31  TRP31       0.0946
     55  CD2       30.4820   10.4000    0.0180 C.ar   31  TRP31       0.0152
     56  NE1       29.4130   10.6750    1.9630 N.ar   31  TRP31      -0.2442
     57  CE2       29.3870   11.0160    0.6430 C.ar   31  TRP31       0.0810
     58  CE3       30.6770   10.6070   -1.3540 C.ar   31  TRP31       0.0012
     59  CZ2       28.4930   11.7960   -0.0480 C.ar   31  TRP31       0.0191
     60  CZ3       29.8290   11.4510   -2.0210 C.ar   31  TRP31       0.0001
     61  CH2       28.7330   12.0070   -1.3690 C.ar   31  TRP31       0.0015
     62  N         28.9370    6.5350    9.5920 N.3    36  GLN36      -0.1245
     63  CA        28.0060    5.5850    8.9640 C.3    36  GLN36       0.1566
     64  C         28.5900    4.1970    8.8720 C.2    36  GLN36       0.2260
     65  O         29.8060    4.0330    8.6900 O.2    36  GLN36      -0.2867
     66  CB        27.5160    6.1090    7.6020 C.3    36  GLN36       0.0367
     67  CG        28.5990    6.4570    6.5790 C.3    36  GLN36       0.0905
     68  CD        28.9470    7.9510    6.5460 C.2    36  GLN36       0.2608
     69  OE1       29.1800    8.5640    7.6230 O.2    36  GLN36      -0.2717
     70  NE2       28.9080    8.5650    5.3580 N.am   36  GLN36      -0.0878
     71  N         28.6960    1.8990    6.7210 N.3    38  ASN38      -0.1240
     72  CA        29.3940    1.5570    5.4510 C.3    38  ASN38       0.1653
     73  C         30.7810    2.1790    5.3710 C.2    38  ASN38       0.2266
     74  O         31.4590    2.0540    4.3370 O.2    38  ASN38      -0.2867
     75  CB        28.5150    1.9030    4.2120 C.3    38  ASN38       0.1155
     76  CG        28.1090    3.3300    4.1770 C.2    38  ASN38       0.2627
     77  OD1       27.5480    3.8400    5.1910 O.2    38  ASN38      -0.2716
     78  ND2       28.4240    4.0410    3.0580 N.am   38  ASN38      -0.0877
     79  N         33.5480    9.9510   -4.5450 N.3   107  ARG107     -0.1245
     80  CA        32.9710    9.0170   -5.4720 C.3   107  ARG107      0.1563
     81  C         33.9480    8.3140   -6.4210 C.2   107  ARG107      0.2260
     82  O         33.5420    7.4970   -7.2540 O.2   107  ARG107     -0.2867
     83  CB        31.7440    9.5410   -6.2140 C.3   107  ARG107      0.0307
     84  CG        30.6900   10.1750   -5.3800 C.3   107  ARG107      0.0489
     85  CD        29.5470   10.6970   -6.2700 C.3   107  ARG107      0.2205
     86  NE        28.6890   11.7380   -5.6340 N.pl3 107  ARG107     -0.0865
     87  CZ        27.5430   11.4750   -5.0540 C.cat 107  ARG107      0.5346
     88  NH1       27.0610   10.2660   -5.0400 N.pl3 107  ARG107      0.1354
     89  NH2       26.8440   12.4650   -4.5100 N.pl3 107  ARG107      0.1354
@<TRIPOS>BOND
     1    25    24    1
     2    24    23    2
     3    24    26    1
     4    82    81    2
     5    23    22    1
     6    81    80    1
     7    85    86    1
     8    85    84    1
     9    83    80    1
    10    83    84    1
    11    22    21    1
    12    86    87    2
    13    80    79    1
    14    87    88    1
    15    87    89    1
    16    34    32   am
    17    21    20    1
    18    46    45    2
    19    33    32    2
    20    32    31    1
    21    20    17    1
    22    43    40    1
    23    43    44    1
    24    40    39    1
    25    40    41    1
    26    45    44    1
    27    45    47   am
    28    31    28    1
    29    17    18    1
    30    17    16    1
    31    19    18    2
    32    18    27   am
    33    60    61   ar
    34    60    58   ar
    35    41    42    2
    36    27    28    1
    37    16    11   am
    38    28    29    1
    39    61    59   ar
    40    58    55   ar
    41     4     3    2
    42    11    10    1
    43    11    12    2
    44    29    30    2
    45    29    35   am
    46    59    57   ar
    47    55    57   ar
    48    55    53   ar
    49    14    13    1
    50    48    49    1
    51    10    13    1
    52    10     9    1
    53    49    52    1
    54    49    50    1
    55    57    56   ar
    56    35    36    1
    57     7     6   ar
    58    52    53    1
    59     3     9   am
    60     3     2    1
    61    53    54   ar
    62    13    15    1
    63    37    36    1
    64    37    38    2
    65     5     6    1
    66     5     2    1
    67     6     8   ar
    68     1     2    1
    69    50    51    2
    70    56    54   ar
    71    78    76   am
    72    76    75    1
    73    76    77    2
    74    75    72    1
    75    74    73    2
    76    70    68   am
    77    73    72    1
    78    72    71    1
    79    68    67    1
    80    68    69    2
    81    67    66    1
    82    66    63    1
    83    65    64    2
    84    64    63    1
    85    63    62    1
