@<TRIPOS>MOLECULE
tmp/3ca2A00.pdb
 126 121 0 0 0
SMALL
GASTEIGER

@<TRIPOS>ATOM
      1  N         -3.4790    0.5570    3.7880 N.3    59  ASN59      -0.1240
      2  CA        -2.3400    1.4030    4.1990 C.3    59  ASN59       0.1653
      3  C         -1.0700    0.6800    4.5110 C.2    59  ASN59       0.2266
      4  O         -0.2000    1.2830    5.1310 O.2    59  ASN59      -0.2867
      5  CB        -2.8070    2.2890    5.3900 C.3    59  ASN59       0.1155
      6  CG        -3.1460    1.4430    6.5990 C.2    59  ASN59       0.2627
      7  OD1       -2.8020    0.2860    6.6930 O.2    59  ASN59      -0.2716
      8  ND2       -3.8330    2.0120    7.5500 N.am   59  ASN59      -0.0877
      9  N         -0.7380   -2.0250    6.4520 N.3    61  HIS61      -0.1241
     10  CA        -0.8270   -2.7990    7.6530 C.3    61  HIS61       0.1621
     11  C         -2.2840   -3.2750    7.9460 C.2    61  HIS61       0.2264
     12  O         -2.4710   -4.1140    8.8630 O.2    61  HIS61      -0.2867
     13  CB        -0.3730   -2.1940    8.9660 C.3    61  HIS61       0.0745
     14  CG        -0.8070   -0.8220    9.2960 C.ar   61  HIS61       0.0817
     15  ND1       -0.1490    0.2710    8.8680 N.ar   61  HIS61      -0.2268
     16  CD2       -1.8240   -0.3180   10.0560 C.ar   61  HIS61       0.1154
     17  CE1       -0.6140    1.3680    9.2690 C.ar   61  HIS61       0.1986
     18  NE2       -1.6090    1.0850   10.0100 N.ar   61  HIS61      -0.2212
     19  N         -8.4960    0.4890    5.9040 N.3    64  ASN64      -0.1240
     20  CA        -9.3750    1.4130    6.6980 C.3    64  ASN64       0.1653
     21  C        -10.5640    1.8050    5.8310 C.2    64  ASN64       0.2266
     22  O        -10.3630    2.0210    4.5930 O.2    64  ASN64      -0.2867
     23  CB        -8.6670    2.7370    7.0640 C.3    64  ASN64       0.1155
     24  CG        -7.5170    2.5990    8.0590 C.2    64  ASN64       0.2627
     25  OD1       -6.8320    3.7030    8.2900 O.2    64  ASN64      -0.2716
     26  ND2       -7.3240    1.4630    8.5550 N.am   64  ASN64      -0.0877
     27  N        -12.6300    6.3210   11.2480 N.3    89  GLN89      -0.1245
     28  CA       -12.4270    5.1440   10.4160 C.3    89  GLN89       0.1566
     29  C        -12.6270    3.8280   11.2000 C.2    89  GLN89       0.2260
     30  O        -12.6700    3.8680   12.4220 O.2    89  GLN89      -0.2867
     31  CB       -10.9850    5.1720    9.8330 C.3    89  GLN89       0.0367
     32  CG        -9.8580    5.3180   10.8990 C.3    89  GLN89       0.0905
     33  CD        -9.1740    4.1020   11.2960 C.2    89  GLN89       0.2608
     34  OE1       -9.6600    2.9170   11.1650 O.2    89  GLN89      -0.2717
     35  NE2       -7.9640    4.2680   11.8850 N.am   89  GLN89      -0.0878
     36  N        -11.3020   -0.4160   11.0130 N.3    91  HIS91      -0.1241
     37  CA       -10.3380   -1.3910   10.3950 C.3    91  HIS91       0.1621
     38  C        -10.4320   -2.6750   11.1600 C.2    91  HIS91       0.2264
     39  O        -11.1160   -2.7580   12.2230 O.2    91  HIS91      -0.2867
     40  CB        -8.8960   -0.7550   10.3400 C.3    91  HIS91       0.0745
     41  CG        -8.3870   -0.4320   11.7630 C.ar   91  HIS91       0.0817
     42  ND1       -8.4940    0.6460   12.4340 N.ar   91  HIS91      -0.2268
     43  CD2       -7.7480   -1.3540   12.6050 C.ar   91  HIS91       0.1154
     44  CE1       -7.9900    0.4990   13.6630 C.ar   91  HIS91       0.1986
     45  NE2       -7.5060   -0.7520   13.7720 N.ar   91  HIS91      -0.2212
     46  N         -8.1430   -6.5060   12.4000 N.3    93  HIS93      -0.1241
     47  CA        -6.9010   -7.2430   12.7130 C.3    93  HIS93       0.1621
     48  C         -7.3830   -8.7200   12.5630 C.2    93  HIS93       0.2264
     49  O         -8.4710   -9.0640   12.9830 O.2    93  HIS93      -0.2867
     50  CB        -6.3510   -7.0580   14.1770 C.3    93  HIS93       0.0745
     51  CG        -6.0120   -5.5620   14.3990 C.ar   93  HIS93       0.0817
     52  ND1       -4.7930   -5.0580   14.1160 N.ar   93  HIS93      -0.2268
     53  CD2       -6.7930   -4.5800   14.7650 C.ar   93  HIS93       0.1154
     54  CE1       -4.8200   -3.7420   14.3490 C.ar   93  HIS93       0.1986
     55  NE2       -6.0560   -3.4190   14.8150 N.ar   93  HIS93      -0.2212
     56  N        -12.0970   -2.5580   14.9090 N.3   116  HIS116     -0.1241
     57  CA       -11.8780   -1.3660   15.6990 C.3   116  HIS116      0.1621
     58  C        -12.4920   -0.1530   14.9650 C.2   116  HIS116      0.2264
     59  O        -12.1190    0.0560   13.8550 O.2   116  HIS116     -0.2867
     60  CB       -10.3740   -1.0440   15.9520 C.3   116  HIS116      0.0745
     61  CG        -9.6220   -2.0400   16.7500 C.ar  116  HIS116      0.0817
     62  ND1       -8.2270   -2.2270   16.6700 N.ar  116  HIS116     -0.2268
     63  CD2      -10.0610   -2.9160   17.7100 C.ar  116  HIS116      0.1154
     64  CE1       -7.9230   -3.2280   17.4870 C.ar  116  HIS116      0.1986
     65  NE2       -8.9900   -3.6420   18.1440 N.ar  116  HIS116     -0.2212
     66  N        -12.6940    3.5850   15.2810 N.3   118  VAL118     -0.1245
     67  CA       -11.9240    4.6900   15.8450 C.3   118  VAL118      0.1561
     68  C        -12.6380    5.9860   15.8870 C.2   118  VAL118      0.2260
     69  O        -13.1370    6.4280   14.8140 O.2   118  VAL118     -0.2867
     70  CB       -10.5290    4.7360   15.0550 C.3   118  VAL118      0.0252
     71  CG1       -9.5850    5.7440   15.6790 C.3   118  VAL118      0.0019
     72  CG2      -10.0660    3.3500   14.9560 C.3   118  VAL118      0.0019
     73  N         -8.3100   15.1760   14.7180 N.3   127  PHE127     -0.1241
     74  CA        -7.7630   13.8940   15.0850 C.3   127  PHE127      0.1605
     75  C         -6.2820   14.0910   15.6110 C.2   127  PHE127      0.2264
     76  O         -5.9070   13.6330   16.6680 O.2   127  PHE127     -0.2867
     77  CB        -7.7710   12.8750   13.9670 C.3   127  PHE127      0.0534
     78  CG        -7.2490   11.5270   14.3340 C.ar  127  PHE127     -0.0203
     79  CD1       -5.9120   11.2010   14.1020 C.ar  127  PHE127     -0.0042
     80  CD2       -8.1030   10.5860   14.9380 C.ar  127  PHE127     -0.0042
     81  CE1       -5.3910    9.9360   14.4560 C.ar  127  PHE127     -0.0003
     82  CE2       -7.6430    9.3350   15.2790 C.ar  127  PHE127     -0.0003
     83  CZ        -6.2760    9.0190   15.0520 C.ar  127  PHE127     -0.0000
     84  N        -11.9630    3.7500   21.3320 N.3   139  VAL139     -0.1245
     85  CA       -12.0100    2.7470   20.2440 C.3   139  VAL139      0.1561
     86  C        -13.0050    1.6650   20.7500 C.2   139  VAL139      0.2260
     87  O        -12.8490    1.2710   21.8910 O.2   139  VAL139     -0.2867
     88  CB       -10.6420    2.1880   19.8240 C.3   139  VAL139      0.0252
     89  CG1      -10.7590    1.2010   18.6130 C.3   139  VAL139      0.0019
     90  CG2       -9.5760    3.1850   19.4430 C.3   139  VAL139      0.0019
     91  N         -3.0270    3.2100   21.2880 N.3   194  LEU194     -0.1231
     92  CA        -3.2000    2.6580   19.9010 C.3   194  LEU194      0.1693
     93  C         -2.4300    1.3560   19.9480 C.2   194  LEU194      0.2593
     94  O         -1.4760    1.2390   20.7820 O.2   194  LEU194     -0.2718
     95  CB        -2.5070    3.5980   18.8870 C.3   194  LEU194      0.0284
     96  CG        -3.0130    5.0190   18.8270 C.3   194  LEU194      0.0019
     97  CD1       -2.1040    5.7830   17.7970 C.3   194  LEU194      0.0001
     98  CD2       -4.4380    5.0200   18.4570 C.3   194  LEU194      0.0001
     99  N         -2.7190    0.3460   19.1960 N.am  195  THR195     -0.1939
    100  CA        -2.1000   -0.9270   19.1010 C.3   195  THR195      0.2028
    101  C         -1.1040   -1.0120   17.9490 C.2   195  THR195      0.2639
    102  O         -0.4340   -2.1340   17.8330 O.2   195  THR195     -0.2714
    103  CB        -3.1380   -2.0830   19.0910 C.3   195  THR195      0.1808
    104  OG1       -3.7520   -2.0270   17.7450 O.3   195  THR195     -0.2208
    105  CG2       -4.1580   -2.0730   20.2230 C.3   195  THR195      0.0379
    106  N         -0.8520    0.0590   17.2430 N.am  196  THR196     -0.2003
    107  CA         0.1070    0.1370   16.1890 C.3   196  THR196      0.1584
    108  C          0.9120    1.4210   16.4510 C.3   196  THR196      0.2062
    109  O          0.2800    2.2990   17.0910 O.3   196  THR196     -0.2184
    110  CB        -0.4810    0.2280   14.6980 C.3   196  THR196      0.1745
    111  OG1       -1.2580    1.4420   14.5920 O.3   196  THR196     -0.2212
    112  CG2       -1.4100   -0.9180   14.3400 C.3   196  THR196      0.0374
    113  N        -10.6100    2.3780   25.8050 N.3   205  TRP205     -0.1241
    114  CA       -11.0730    1.1780   25.0580 C.3   205  TRP205      0.1605
    115  C        -12.4250    0.7380   25.6160 C.2   205  TRP205      0.2264
    116  O        -12.6590    0.8170   26.7640 O.2   205  TRP205     -0.2867
    117  CB       -10.0310    0.0420   25.2230 C.3   205  TRP205      0.0550
    118  CG        -8.8700    0.2080   24.2630 C.ar  205  TRP205      0.0003
    119  CD1       -7.6810    0.7870   24.4830 C.ar  205  TRP205      0.0946
    120  CD2       -8.9060   -0.2890   22.8960 C.ar  205  TRP205      0.0152
    121  NE1       -6.9730    0.7580   23.2830 N.ar  205  TRP205     -0.2442
    122  CE2       -7.6660    0.0490   22.3300 C.ar  205  TRP205      0.0810
    123  CE3       -9.8620   -0.9060   22.1320 C.ar  205  TRP205      0.0012
    124  CZ2       -7.3310   -0.2120   21.0390 C.ar  205  TRP205      0.0191
    125  CZ3       -9.5600   -1.2270   20.7960 C.ar  205  TRP205      0.0001
    126  CH2       -8.3500   -0.8870   20.2550 C.ar  205  TRP205      0.0015
@<TRIPOS>BOND
     1     1     2    1
     2     2     3    1
     3     2     5    1
     4     3     4    2
     5    22    21    2
     6     5     6    1
     7    21    20    1
     8    19    20    1
     9     9    10    1
    10     6     7    2
    11     6     8   am
    12    20    23    1
    13    23    24    1
    14    10    11    1
    15    10    13    1
    16    11    12    2
    17    24    25    2
    18    24    26   am
    19    15    17   ar
    20    15    14   ar
    21    13    14    1
    22    17    18   ar
    23    14    16   ar
    24    31    28    1
    25    31    32    1
    26    18    16   ar
    27    40    37    1
    28    40    41    1
    29    37    36    1
    30    37    38    1
    31    28    29    1
    32    28    27    1
    33    32    33    1
    34    38    39    2
    35    34    33    2
    36    29    30    2
    37    33    35   am
    38    41    42   ar
    39    41    43   ar
    40    46    47    1
    41    42    44   ar
    42    48    47    1
    43    48    49    2
    44    43    45   ar
    45    47    50    1
    46    44    45   ar
    47    59    58    2
    48    77    78    1
    49    77    74    1
    50    79    78   ar
    51    79    81   ar
    52    52    54   ar
    53    52    51   ar
    54    50    51    1
    55    78    80   ar
    56   112   110    1
    57    54    55   ar
    58    51    53   ar
    59    81    83   ar
    60   111   110    1
    61   110   107    1
    62    73    74    1
    63    53    55   ar
    64    69    68    2
    65    56    57    1
    66    80    82   ar
    67    72    70    1
    68    58    57    1
    69    83    82   ar
    70    70    71    1
    71    70    67    1
    72    74    75    1
    73    66    67    1
    74    75    76    2
    75    57    60    1
    76    67    68    1
    77    60    61    1
    78   107   108    1
    79   107   106    1
    80   108   109    1
    81    62    61   ar
    82    62    64   ar
    83    61    63   ar
    84   106   101   am
    85    64    65   ar
    86    63    65   ar
    87   104   103    1
    88    97    96    1
    89   102   101    2
    90   101   100    1
    91    98    96    1
    92    89    88    1
    93    96    95    1
    94    95    92    1
    95   103   100    1
    96   103   105    1
    97   100    99    1
    98    99    93   am
    99    90    88    1
   100    88    85    1
   101    92    93    1
   102    92    91    1
   103    93    94    2
   104    85    86    1
   105    85    84    1
   106   126   125   ar
   107   126   124   ar
   108    86    87    2
   109   125   123   ar
   110   124   122   ar
   111   123   120   ar
   112   122   120   ar
   113   122   121   ar
   114   120   118   ar
   115   121   119   ar
   116   118   119   ar
   117   118   117    1
   118   114   117    1
   119   114   115    1
   120   114   113    1
   121   115   116    2
