@<TRIPOS>MOLECULE
tmp/3ca3A03.pdb
 90 83 0 0 0
SMALL
GASTEIGER

@<TRIPOS>ATOM
      1  N         70.3050   12.5550   -2.7430 N.3   193  LYS193     -0.1245
      2  CA        70.5140   14.0100   -2.7640 C.3   193  LYS193      0.1561
      3  C         69.4540   14.8170   -3.4850 C.2   193  LYS193      0.2260
      4  O         69.5600   16.0440   -3.5740 O.2   193  LYS193     -0.2867
      5  CB        71.9390   14.4620   -3.1680 C.3   193  LYS193      0.0271
      6  CG        73.0180   13.9020   -2.3280 C.3   193  LYS193      0.0035
      7  CD        74.3300   14.6240   -2.5740 C.3   193  LYS193      0.0206
      8  CE        74.6980   14.5640   -3.9470 C.3   193  LYS193      0.1093
      9  NZ        76.0590   15.2040   -4.1100 N.3   193  LYS193     -0.1314
     10  N         66.7600   13.9080    5.2930 N.3   227  ASP227     -0.1239
     11  CA        68.1330   14.1200    5.7690 C.3   227  ASP227      0.1674
     12  C         68.4370   15.5900    5.6910 C.2   227  ASP227      0.2266
     13  O         68.2080   16.2150    4.6510 O.2   227  ASP227     -0.2867
     14  CB        68.9920   13.2700    4.8100 C.3   227  ASP227      0.1410
     15  CG        70.4890   13.4080    4.9940 C.2   227  ASP227      0.3668
     16  OD1       70.9860   14.5240    4.9580 O.co2 227  ASP227     -0.2456
     17  OD2       71.1660   12.3430    5.0690 O.co2 227  ASP227     -0.2456
     18  N         70.8490   18.0540    5.0160 N.3   229  ARG229     -0.1231
     19  CA        72.0260   17.9010    4.1550 C.3   229  ARG229      0.1694
     20  C         73.2750   18.2780    4.8900 C.2   229  ARG229      0.2592
     21  O         73.3860   19.4120    5.3900 O.2   229  ARG229     -0.2718
     22  CB        71.8900   18.7090    2.8750 C.3   229  ARG229      0.0321
     23  CG        73.0170   18.3990    1.8540 C.3   229  ARG229      0.0489
     24  CD        72.8070   19.1500    0.5870 C.3   229  ARG229      0.2205
     25  NE        73.8890   18.9030   -0.3550 N.pl3 229  ARG229     -0.0865
     26  CZ        73.7280   18.9520   -1.6720 C.cat 229  ARG229      0.5346
     27  NH1       72.5630   19.2220   -2.2170 N.pl3 229  ARG229      0.1354
     28  NH2       74.7660   18.6930   -2.4410 N.pl3 229  ARG229      0.1354
     29  N         74.2210   17.3380    4.9090 N.am  230  ALA230     -0.1966
     30  CA        75.5410   17.5520    5.5200 C.3   230  ALA230      0.1728
     31  C         75.5240   17.9440    7.0030 C.2   230  ALA230      0.2616
     32  O         76.5060   18.5380    7.5240 O.2   230  ALA230     -0.2715
     33  CB        76.3480   18.5820    4.6680 C.3   230  ALA230      0.0334
     34  N         74.4420   17.6020    7.7050 N.am  231  SER231     -0.1950
     35  CA        74.2600   18.0770    9.0710 C.3   231  SER231      0.1924
     36  C         74.5270   19.6050    9.1750 C.2   231  SER231      0.2314
     37  O         75.0210   20.1060   10.2060 O.2   231  SER231     -0.2863
     38  CB        75.1170   17.3060   10.0520 C.3   231  SER231      0.2116
     39  OG        74.8630   15.9160   10.0430 O.3   231  SER231     -0.2180
     40  N         67.1980   16.7290    1.9530 N.3   239  ILE239     -0.1245
     41  CA        67.3090   15.8140    0.8410 C.3   239  ILE239      0.1561
     42  C         66.7910   14.4740    1.2500 C.2   239  ILE239      0.2260
     43  O         66.5880   14.1990    2.4360 O.2   239  ILE239     -0.2867
     44  CB        68.7920   15.7000    0.3620 C.3   239  ILE239      0.0252
     45  CG1       69.7060   15.2380    1.5100 C.3   239  ILE239      0.0019
     46  CG2       69.2700   17.0910   -0.2250 C.3   239  ILE239      0.0019
     47  CD1       71.1270   14.8680    1.0520 C.3   239  ILE239      0.0001
     48  N         68.2390   10.6170    1.2690 N.3   241  PHE241     -0.1241
     49  CA        69.5400    9.9800    1.3560 C.3   241  PHE241      0.1605
     50  C         69.3650    8.6090    1.9610 C.2   241  PHE241      0.2264
     51  O         68.4910    8.3930    2.8040 O.2   241  PHE241     -0.2867
     52  CB        70.4490   10.8640    2.2140 C.3   241  PHE241      0.0534
     53  CG        71.9210   10.6200    2.0150 C.ar  241  PHE241     -0.0203
     54  CD1       72.5690   11.1150    0.8680 C.ar  241  PHE241     -0.0042
     55  CD2       72.6570    9.9320    2.9460 C.ar  241  PHE241     -0.0042
     56  CE1       73.9400   10.8750    0.6690 C.ar  241  PHE241     -0.0003
     57  CE2       73.9950    9.6960    2.7370 C.ar  241  PHE241     -0.0003
     58  CZ        74.6360   10.1440    1.6120 C.ar  241  PHE241     -0.0000
     59  N         71.2230    6.2430    7.6040 N.3   244  THR244     -0.1218
     60  CA        72.5020    6.1180    8.3120 C.3   244  THR244      0.1862
     61  C         72.3620    5.9990    9.8270 C.2   244  THR244      0.2287
     62  O         73.3380    5.6490   10.5200 O.2   244  THR244     -0.2866
     63  CB        73.3550    7.3330    8.1020 C.3   244  THR244      0.1770
     64  OG1       72.6260    8.4370    8.6070 O.3   244  THR244     -0.2211
     65  CG2       73.7170    7.5740    6.6300 C.3   244  THR244      0.0375
     66  N         72.1060    8.4870   11.7640 N.3   246  ASN246     -0.1240
     67  CA        72.7760    9.6830   12.3110 C.3   246  ASN246      0.1653
     68  C         71.7470   10.7350   12.7560 C.2   246  ASN246      0.2266
     69  O         70.5920   10.6950   12.3020 O.2   246  ASN246     -0.2867
     70  CB        73.7120   10.2650   11.3190 C.3   246  ASN246      0.1155
     71  CG        74.9480    9.4040   11.1080 C.2   246  ASN246      0.2627
     72  OD1       75.3920    8.6370   12.0290 O.2   246  ASN246     -0.2716
     73  ND2       75.5130    9.5130    9.9130 N.am  246  ASN246     -0.0877
     74  N         71.1600   13.7060   11.9590 N.3   248  ASN248     -0.1225
     75  CA        70.5820   14.5440   10.8940 C.3   248  ASN248      0.1785
     76  C         69.5030   13.8130   10.0880 C.2   248  ASN248      0.2597
     77  O         68.9700   14.3760    9.1420 O.2   248  ASN248     -0.2718
     78  CB        71.6490   15.1130    9.9750 C.3   248  ASN248      0.1169
     79  CG        72.2710   14.0580    9.1110 C.2   248  ASN248      0.2627
     80  OD1       72.6010   12.9680    9.6260 O.2   248  ASN248     -0.2716
     81  ND2       72.4690   14.3500    7.8200 N.am  248  ASN248     -0.0877
     82  N         69.1830   12.5840   10.4860 N.am  249  GLN249     -0.1979
     83  CA        68.0960   11.8230    9.9070 C.3   249  GLN249      0.1601
     84  C         67.0500   11.3660   10.9430 C.2   249  GLN249      0.2287
     85  O         66.2420   10.5360   10.6250 O.2   249  GLN249     -0.2864
     86  CB        68.6250   10.5830    9.1940 C.3   249  GLN249      0.0394
     87  CG        69.5000   10.8850    7.9750 C.3   249  GLN249      0.0908
     88  CD        69.8660    9.6100    7.2260 C.2   249  GLN249      0.2608
     89  OE1       69.5960    8.5070    7.7390 O.2   249  GLN249     -0.2717
     90  NE2       70.4480    9.7470    6.0140 N.am  249  GLN249     -0.0878
@<TRIPOS>BOND
     1     9     8    1
     2     8     7    1
     3     4     3    2
     4     3     2    1
     5     5     2    1
     6     5     6    1
     7     2     1    1
     8     7     6    1
     9    28    26    1
    10    27    26    1
    11    26    25    2
    12    25    24    1
    13    46    44    1
    14    44    41    1
    15    44    45    1
    16    24    23    1
    17    56    54   ar
    18    56    58   ar
    19    41    42    1
    20    41    40    1
    21    54    53   ar
    22    47    45    1
    23    42    43    2
    24    48    49    1
    25    49    50    1
    26    49    52    1
    27    58    57   ar
    28    23    22    1
    29    50    51    2
    30    53    52    1
    31    53    55   ar
    32    57    55   ar
    33    22    19    1
    34    19    20    1
    35    19    18    1
    36    13    12    2
    37    33    30    1
    38    14    15    1
    39    14    11    1
    40    20    29   am
    41    20    21    2
    42    29    30    1
    43    16    15   ar
    44    15    17   ar
    45    10    11    1
    46    30    31    1
    47    12    11    1
    48    90    88   am
    49    65    63    1
    50    31    32    2
    51    31    34   am
    52    88    89    2
    53    88    87    1
    54    59    60    1
    55    34    35    1
    56    81    79   am
    57    87    86    1
    58    63    60    1
    59    63    64    1
    60    60    61    1
    61    35    36    1
    62    35    38    1
    63    79    80    2
    64    79    78    1
    65    77    76    2
    66    36    37    2
    67    86    83    1
    68    61    62    2
    69    83    82    1
    70    83    84    1
    71    73    71   am
    72    78    75    1
    73    39    38    1
    74    76    82   am
    75    76    75    1
    76    85    84    2
    77    75    74    1
    78    71    70    1
    79    71    72    2
    80    70    67    1
    81    66    67    1
    82    69    68    2
    83    67    68    1
