@<TRIPOS>MOLECULE
tmp/3ca4A03.pdb
 94 90 0 0 0
SMALL
GASTEIGER

@<TRIPOS>ATOM
      1  N         34.5650    3.7560    1.6690 N.3    16  ASP16      -0.1239
      2  CA        33.1030    3.9100    1.8930 C.3    16  ASP16       0.1674
      3  C         32.3790    3.0030    0.9310 C.2    16  ASP16       0.2266
      4  O         32.7170    2.9570   -0.2700 O.2    16  ASP16      -0.2867
      5  CB        32.8080    5.3980    1.5680 C.3    16  ASP16       0.1410
      6  CG        31.3170    5.7660    1.6350 C.2    16  ASP16       0.3668
      7  OD1       30.5700    5.3370    0.7260 O.co2  16  ASP16      -0.2456
      8  OD2       30.9090    6.5100    2.6020 O.co2  16  ASP16      -0.2456
      9  N         29.6740    2.2640   -1.5180 N.3    18  ARG18      -0.1231
     10  CA        28.9530    3.2990   -2.2930 C.3    18  ARG18       0.1694
     11  C         27.4430    3.3660   -1.9890 C.2    18  ARG18       0.2592
     12  O         26.7320    2.3650   -2.1290 O.2    18  ARG18      -0.2718
     13  CB        29.1950    3.0790   -3.7860 C.3    18  ARG18       0.0321
     14  CG        28.8180    4.3000   -4.6590 C.3    18  ARG18       0.0489
     15  CD        29.3410    4.0540   -6.0610 C.3    18  ARG18       0.2205
     16  NE        29.1080    5.1300   -7.0490 N.pl3  18  ARG18      -0.0865
     17  CZ        30.0330    5.9870   -7.4970 C.cat  18  ARG18       0.5346
     18  NH1       29.7520    6.8290   -8.5110 N.pl3  18  ARG18       0.1354
     19  NH2       31.2430    6.0020   -6.9570 N.pl3  18  ARG18       0.1354
     20  N         26.9880    4.5620   -1.5950 N.am   19  ASN19      -0.1960
     21  CA        25.5780    4.8260   -1.2330 C.3    19  ASN19       0.1819
     22  C         25.0470    4.0350   -0.0370 C.2    19  ASN19       0.2622
     23  O         23.8250    3.9700    0.2150 O.2    19  ASN19      -0.2715
     24  CB        24.6890    4.6690   -2.4640 C.3    19  ASN19       0.1195
     25  CG        25.0630    5.6780   -3.5280 C.2    19  ASN19       0.2630
     26  OD1       25.3120    6.8880   -3.2230 O.2    19  ASN19      -0.2716
     27  ND2       25.1510    5.2120   -4.7670 N.am   19  ASN19      -0.0877
     28  N         25.9540    3.4490    0.7290 N.am   20  GLY20      -0.1940
     29  CA        25.5560    2.6670    1.9110 C.3    20  GLY20       0.2014
     30  C         24.8620    1.3610    1.5640 C.2    20  GLY20       0.2638
     31  O         24.3540    0.7080    2.4710 O.2    20  GLY20      -0.2714
     32  N         24.8720    0.9510    0.2740 N.am   21  TYR21      -0.1973
     33  CA        24.2720   -0.3260   -0.1230 C.3    21  TYR21       0.1639
     34  C         25.1270   -1.4830    0.3600 C.2    21  TYR21       0.2290
     35  O         26.3540   -1.4020    0.2630 O.2    21  TYR21      -0.2864
     36  CB        24.0630   -0.3880   -1.6550 C.3    21  TYR21       0.0560
     37  CG        23.0380    0.6430   -2.1030 C.ar   21  TYR21      -0.0198
     38  CD1       22.0930    1.1330   -1.2120 C.ar   21  TYR21      -0.0009
     39  CD2       23.0450    1.1470   -3.3870 C.ar   21  TYR21      -0.0009
     40  CE1       21.1410    2.1070   -1.6160 C.ar   21  TYR21       0.0417
     41  CE2       22.1170    2.0950   -3.7870 C.ar   21  TYR21       0.0417
     42  CZ        21.1860    2.5800   -2.8980 C.ar   21  TYR21       0.1957
     43  OH        20.2460    3.5370   -3.3490 O.3    21  TYR21      -0.2866
     44  N         34.4760    3.1600   -2.5430 N.3    29  GLN29      -0.1245
     45  CA        34.8430    4.4330   -3.1120 C.3    29  GLN29       0.1566
     46  C         35.4400    5.2760   -1.9920 C.2    29  GLN29       0.2260
     47  O         35.3650    4.9080   -0.7830 O.2    29  GLN29      -0.2867
     48  CB        33.6020    5.1600   -3.6520 C.3    29  GLN29       0.0367
     49  CG        32.6810    5.6070   -2.4960 C.3    29  GLN29       0.0905
     50  CD        31.4010    6.2620   -2.9660 C.2    29  GLN29       0.2608
     51  OE1       31.2020    6.5060   -4.1890 O.2    29  GLN29      -0.2717
     52  NE2       30.5100    6.5790   -1.9980 N.am   29  GLN29      -0.0878
     53  N         34.9110    8.7930    0.1340 N.3    31  TRP31      -0.1241
     54  CA        33.8540    9.6970    0.5140 C.3    31  TRP31       0.1605
     55  C         34.3370   10.4110    1.7850 C.2    31  TRP31       0.2264
     56  O         35.0330    9.7940    2.5950 O.2    31  TRP31      -0.2867
     57  CB        32.5890    8.8870    0.7780 C.3    31  TRP31       0.0550
     58  CG        31.3810    9.7340    0.9790 C.ar   31  TRP31       0.0003
     59  CD1       30.7180    9.9890    2.1690 C.ar   31  TRP31       0.0946
     60  CD2       30.7150   10.5010   -0.0430 C.ar   31  TRP31       0.0152
     61  NE1       29.6220   10.8200    1.9160 N.ar   31  TRP31      -0.2442
     62  CE2       29.6110   11.1500    0.5760 C.ar   31  TRP31       0.0810
     63  CE3       30.9240   10.6620   -1.4280 C.ar   31  TRP31       0.0012
     64  CZ2       28.7590   11.9780   -0.1230 C.ar   31  TRP31       0.0191
     65  CZ3       30.0690   11.5150   -2.1240 C.ar   31  TRP31       0.0001
     66  CH2       29.0010   12.1630   -1.4600 C.ar   31  TRP31       0.0015
     67  N         28.9690    6.6550    9.5630 N.3    36  GLN36      -0.1245
     68  CA        28.0010    5.7360    8.9730 C.3    36  GLN36       0.1566
     69  C         28.5720    4.3470    8.8810 C.2    36  GLN36       0.2260
     70  O         29.7890    4.1670    8.7130 O.2    36  GLN36      -0.2867
     71  CB        27.5320    6.2160    7.5920 C.3    36  GLN36       0.0367
     72  CG        28.6670    6.5370    6.5500 C.3    36  GLN36       0.0905
     73  CD        29.0110    8.0420    6.4680 C.2    36  GLN36       0.2608
     74  OE1       29.0840    8.6800    5.3700 O.2    36  GLN36      -0.2717
     75  NE2       29.1430    8.6400    7.6120 N.am   36  GLN36      -0.0878
     76  N         28.6950    2.0910    6.7150 N.3    38  ASN38      -0.1240
     77  CA        29.3760    1.6740    5.4640 C.3    38  ASN38       0.1653
     78  C         30.7830    2.2830    5.3720 C.2    38  ASN38       0.2266
     79  O         31.4480    2.1730    4.3080 O.2    38  ASN38      -0.2867
     80  CB        28.5150    2.0150    4.2270 C.3    38  ASN38       0.1155
     81  CG        28.1440    3.4890    4.1750 C.2    38  ASN38       0.2627
     82  OD1       27.5620    4.0280    5.1520 O.2    38  ASN38      -0.2716
     83  ND2       28.5080    4.1780    3.0580 N.am   38  ASN38      -0.0877
     84  N         33.7580    9.8980   -4.5870 N.3   107  ARG107     -0.1245
     85  CA        33.1110    8.9560   -5.5070 C.3   107  ARG107      0.1563
     86  C         34.0780    8.2460   -6.4550 C.2   107  ARG107      0.2260
     87  O         33.6410    7.4250   -7.2820 O.2   107  ARG107     -0.2867
     88  CB        31.9320    9.5360   -6.2700 C.3   107  ARG107      0.0307
     89  CG        30.8730   10.1380   -5.4370 C.3   107  ARG107      0.0489
     90  CD        29.8290   10.7620   -6.3940 C.3   107  ARG107      0.2205
     91  NE        29.0540   11.8630   -5.7930 N.pl3 107  ARG107     -0.0865
     92  CZ        27.9430   11.6250   -5.1050 C.cat 107  ARG107      0.5346
     93  NH1       27.5240   10.3800   -5.0370 N.pl3 107  ARG107      0.1354
     94  NH2       27.2300   12.6040   -4.5770 N.pl3 107  ARG107      0.1354
@<TRIPOS>BOND
     1    18    17    1
     2    17    16    2
     3    17    19    1
     4    87    86    2
     5    16    15    1
     6    86    85    1
     7    90    91    1
     8    90    89    1
     9    88    85    1
    10    88    89    1
    11    15    14    1
    12    91    92    2
    13    85    84    1
    14    92    93    1
    15    92    94    1
    16    27    25   am
    17    14    13    1
    18    51    50    2
    19    41    39   ar
    20    41    42   ar
    21    13    10    1
    22    48    45    1
    23    48    49    1
    24    25    26    2
    25    25    24    1
    26    39    37   ar
    27    43    42    1
    28    45    44    1
    29    45    46    1
    30    50    49    1
    31    50    52   am
    32    42    40   ar
    33    24    21    1
    34    10    11    1
    35    10     9    1
    36    12    11    2
    37    65    66   ar
    38    65    63   ar
    39    37    36    1
    40    37    38   ar
    41    46    47    2
    42    11    20   am
    43    36    33    1
    44    40    38   ar
    45    20    21    1
    46    66    64   ar
    47    63    60   ar
    48    21    22    1
    49     4     3    2
    50    64    62   ar
    51    33    32    1
    52    33    34    1
    53    60    62   ar
    54    60    58   ar
    55    22    23    2
    56    22    28   am
    57    53    54    1
    58    35    34    2
    59    32    30   am
    60    54    57    1
    61    54    55    1
    62    62    61   ar
    63     7     6   ar
    64    28    29    1
    65    57    58    1
    66     3     2    1
    67    58    59   ar
    68    30    29    1
    69    30    31    2
    70     5     6    1
    71     5     2    1
    72     6     8   ar
    73     1     2    1
    74    55    56    2
    75    61    59   ar
    76    83    81   am
    77    81    80    1
    78    81    82    2
    79    80    77    1
    80    79    78    2
    81    74    73    2
    82    78    77    1
    83    77    76    1
    84    73    72    1
    85    73    75   am
    86    72    71    1
    87    71    68    1
    88    70    69    2
    89    69    68    1
    90    68    67    1
