@<TRIPOS>MOLECULE
tmp/3ca4A04.pdb
 90 83 0 0 0
SMALL
GASTEIGER

@<TRIPOS>ATOM
      1  N         70.2680   12.6610   -2.7420 N.3   193  LYS193     -0.1245
      2  CA        70.5310   14.1290   -2.7760 C.3   193  LYS193      0.1561
      3  C         69.4580   14.9140   -3.5510 C.2   193  LYS193      0.2260
      4  O         69.5620   16.1590   -3.6470 O.2   193  LYS193     -0.2867
      5  CB        71.9410   14.5180   -3.3110 C.3   193  LYS193      0.0271
      6  CG        73.0980   14.0920   -2.4670 C.3   193  LYS193      0.0035
      7  CD        74.4660   14.4350   -3.1960 C.3   193  LYS193      0.0206
      8  CE        74.6950   15.9000   -3.4820 C.3   193  LYS193      0.1093
      9  NZ        75.8860   16.0530   -4.4370 N.3   193  LYS193     -0.1314
     10  N         66.7420   13.9800    5.2090 N.3   227  ASP227     -0.1239
     11  CA        68.1020   14.2000    5.6970 C.3   227  ASP227      0.1674
     12  C         68.4100   15.6720    5.6130 C.2   227  ASP227      0.2266
     13  O         68.1950   16.2990    4.5500 O.2   227  ASP227     -0.2867
     14  CB        68.9700   13.3640    4.7650 C.3   227  ASP227      0.1410
     15  CG        70.4970   13.5600    4.9550 C.2   227  ASP227      0.3668
     16  OD1       70.9950   14.6980    4.7900 O.co2 227  ASP227     -0.2456
     17  OD2       71.1860   12.5270    5.1330 O.co2 227  ASP227     -0.2456
     18  N         70.6810   18.2130    4.8360 N.3   229  ARG229     -0.1231
     19  CA        71.8560   18.0710    3.9350 C.3   229  ARG229      0.1694
     20  C         73.1440   18.5110    4.6310 C.2   229  ARG229      0.2592
     21  O         73.2310   19.6330    5.1750 O.2   229  ARG229     -0.2718
     22  CB        71.6550   18.8410    2.6160 C.3   229  ARG229      0.0321
     23  CG        72.8380   18.6520    1.6640 C.3   229  ARG229      0.0489
     24  CD        72.5610   19.3350    0.3360 C.3   229  ARG229      0.2205
     25  NE        73.7110   19.0990   -0.5330 N.pl3 229  ARG229     -0.0865
     26  CZ        73.6680   19.1970   -1.8580 C.cat 229  ARG229      0.5346
     27  NH1       72.5250   19.4910   -2.4630 N.pl3 229  ARG229      0.1354
     28  NH2       74.7650   18.9680   -2.5610 N.pl3 229  ARG229      0.1354
     29  N         74.1330   17.6100    4.6040 N.am  230  ALA230     -0.1966
     30  CA        75.4750   17.8480    5.1970 C.3   230  ALA230      0.1728
     31  C         75.4730   18.2190    6.6940 C.2   230  ALA230      0.2616
     32  O         76.4610   18.7980    7.1980 O.2   230  ALA230     -0.2715
     33  CB        76.2090   18.9110    4.3510 C.3   230  ALA230      0.0334
     34  N         74.3930   17.8650    7.4140 N.am  231  SER231     -0.1950
     35  CA        74.1960   18.2780    8.8000 C.3   231  SER231      0.1924
     36  C         74.4050   19.7880    8.9490 C.2   231  SER231      0.2314
     37  O         74.9530   20.2440    9.9640 O.2   231  SER231     -0.2863
     38  CB        75.0910   17.5420    9.7800 C.3   231  SER231      0.2116
     39  OG        74.8520   16.1500    9.7500 O.3   231  SER231     -0.2180
     40  N         67.1940   16.7980    1.9090 N.3   239  ILE239     -0.1245
     41  CA        67.2760   15.8940    0.7510 C.3   239  ILE239      0.1561
     42  C         66.7690   14.5370    1.1610 C.2   239  ILE239      0.2260
     43  O         66.5820   14.2680    2.3720 O.2   239  ILE239     -0.2867
     44  CB        68.7500   15.7510    0.2820 C.3   239  ILE239      0.0252
     45  CG1       69.6590   15.3330    1.4510 C.3   239  ILE239      0.0019
     46  CG2       69.2330   17.0920   -0.3530 C.3   239  ILE239      0.0019
     47  CD1       71.0460   14.9050    1.0030 C.3   239  ILE239      0.0001
     48  N         68.2470   10.6780    1.2700 N.3   241  PHE241     -0.1241
     49  CA        69.5800   10.0870    1.3450 C.3   241  PHE241      0.1605
     50  C         69.4210    8.7010    1.9830 C.2   241  PHE241      0.2264
     51  O         68.5090    8.4560    2.7760 O.2   241  PHE241     -0.2867
     52  CB        70.4520   10.9880    2.2220 C.3   241  PHE241      0.0534
     53  CG        71.9440   10.7580    2.0470 C.ar  241  PHE241     -0.0203
     54  CD1       72.6120   11.2080    0.8720 C.ar  241  PHE241     -0.0042
     55  CD2       72.6650   10.1040    3.0360 C.ar  241  PHE241     -0.0042
     56  CE1       74.0070   11.0040    0.7250 C.ar  241  PHE241     -0.0003
     57  CE2       74.0440    9.8650    2.8630 C.ar  241  PHE241     -0.0003
     58  CZ        74.7230   10.3120    1.7320 C.ar  241  PHE241     -0.0000
     59  N         71.2500    6.3550    7.6170 N.3   244  THR244     -0.1218
     60  CA        72.5390    6.1520    8.2920 C.3   244  THR244      0.1862
     61  C         72.3580    6.1190    9.8120 C.2   244  THR244      0.2287
     62  O         73.2750    5.7620   10.5300 O.2   244  THR244     -0.2866
     63  CB        73.4940    7.3000    8.0470 C.3   244  THR244      0.1770
     64  OG1       72.8380    8.5160    8.4500 O.3   244  THR244     -0.2211
     65  CG2       73.8990    7.3870    6.5150 C.3   244  THR244      0.0375
     66  N         72.1770    8.7170   11.5860 N.3   246  ASN246     -0.1240
     67  CA        72.8860    9.8890   12.0870 C.3   246  ASN246      0.1653
     68  C         71.8840   10.9290   12.5840 C.2   246  ASN246      0.2266
     69  O         70.7250   10.8930   12.1870 O.2   246  ASN246     -0.2867
     70  CB        73.7870   10.4810   10.9970 C.3   246  ASN246      0.1155
     71  CG        75.0300    9.6320   10.7510 C.2   246  ASN246      0.2627
     72  OD1       75.4150    8.7910   11.6000 O.2   246  ASN246     -0.2716
     73  ND2       75.6550    9.8320    9.5980 N.am  246  ASN246     -0.0877
     74  N         71.2400   13.9210   11.8010 N.3   248  ASN248     -0.1225
     75  CA        70.5580   14.7610   10.7780 C.3   248  ASN248      0.1785
     76  C         69.4730   13.9950   10.0210 C.2   248  ASN248      0.2597
     77  O         68.9350   14.5080    9.0130 O.2   248  ASN248     -0.2718
     78  CB        71.5710   15.3840    9.7990 C.3   248  ASN248      0.1169
     79  CG        72.2670   14.3370    8.9370 C.2   248  ASN248      0.2627
     80  OD1       72.6380   13.2290    9.4340 O.2   248  ASN248     -0.2716
     81  ND2       72.4270   14.6490    7.6470 N.am  248  ASN248     -0.0877
     82  N         69.2230   12.7420   10.4460 N.am  249  GLN249     -0.1979
     83  CA        68.1320   11.9670    9.8580 C.3   249  GLN249      0.1601
     84  C         67.1250   11.4990   10.9060 C.2   249  GLN249      0.2287
     85  O         66.2800   10.6600   10.5980 O.2   249  GLN249     -0.2864
     86  CB        68.6740   10.7120    9.1430 C.3   249  GLN249      0.0394
     87  CG        69.5660   11.0520    7.9130 C.3   249  GLN249      0.0908
     88  CD        69.9570    9.7750    7.2020 C.2   249  GLN249      0.2608
     89  OE1       69.7280    8.6800    7.7520 O.2   249  GLN249     -0.2717
     90  NE2       70.5570    9.8830    6.0260 N.am  249  GLN249     -0.0878
@<TRIPOS>BOND
     1     9     8    1
     2     4     3    2
     3     3     2    1
     4     8     7    1
     5     5     2    1
     6     5     6    1
     7     7     6    1
     8     2     1    1
     9    28    26    1
    10    27    26    1
    11    26    25    2
    12    25    24    1
    13    46    44    1
    14    44    41    1
    15    44    45    1
    16    24    23    1
    17    56    54   ar
    18    56    58   ar
    19    41    42    1
    20    41    40    1
    21    54    53   ar
    22    47    45    1
    23    42    43    2
    24    48    49    1
    25    49    50    1
    26    49    52    1
    27    23    22    1
    28    58    57   ar
    29    50    51    2
    30    53    52    1
    31    53    55   ar
    32    22    19    1
    33    57    55   ar
    34    19    20    1
    35    19    18    1
    36    33    30    1
    37    13    12    2
    38    29    20   am
    39    29    30    1
    40    20    21    2
    41    14    15    1
    42    14    11    1
    43    16    15   ar
    44    15    17   ar
    45    30    31    1
    46    10    11    1
    47    12    11    1
    48    90    88   am
    49    65    63    1
    50    31    32    2
    51    31    34   am
    52    88    89    2
    53    88    87    1
    54    34    35    1
    55    59    60    1
    56    81    79   am
    57    87    86    1
    58    63    60    1
    59    63    64    1
    60    60    61    1
    61    35    36    1
    62    35    38    1
    63    79    80    2
    64    79    78    1
    65    36    37    2
    66    77    76    2
    67    86    83    1
    68    73    71   am
    69    39    38    1
    70    78    75    1
    71    61    62    2
    72    83    82    1
    73    83    84    1
    74    76    82   am
    75    76    75    1
    76    85    84    2
    77    71    70    1
    78    71    72    2
    79    75    74    1
    80    70    67    1
    81    66    67    1
    82    67    68    1
    83    69    68    2
