@<TRIPOS>MOLECULE
tmp/3ca5A04.pdb
 90 83 0 0 0
SMALL
GASTEIGER

@<TRIPOS>ATOM
      1  N         70.3690   12.5540   -2.6550 N.3   193  LYS193     -0.1245
      2  CA        70.6020   14.0190   -2.6520 C.3   193  LYS193      0.1561
      3  C         69.5620   14.8270   -3.3970 C.2   193  LYS193      0.2260
      4  O         69.6900   16.0870   -3.4970 O.2   193  LYS193     -0.2867
      5  CB        72.0200   14.4110   -3.1600 C.3   193  LYS193      0.0271
      6  CG        73.0940   14.1230   -2.1780 C.3   193  LYS193      0.0035
      7  CD        74.4140   14.8540   -2.5360 C.3   193  LYS193      0.0206
      8  CE        74.8530   14.5860   -3.9380 C.3   193  LYS193      0.1093
      9  NZ        76.0270   15.4830   -4.2670 N.3   193  LYS193     -0.1314
     10  N         66.7990   13.8900    5.3240 N.3   227  ASP227     -0.1239
     11  CA        68.1900   14.0650    5.8010 C.3   227  ASP227      0.1674
     12  C         68.5620   15.5330    5.7630 C.2   227  ASP227      0.2266
     13  O         68.3500   16.1800    4.7490 O.2   227  ASP227     -0.2867
     14  CB        69.0670   13.1820    4.8710 C.3   227  ASP227      0.1410
     15  CG        70.5630   13.3640    5.0700 C.2   227  ASP227      0.3668
     16  OD1       71.2350   12.3120    5.1920 O.co2 227  ASP227     -0.2456
     17  OD2       71.1000   14.4830    4.9680 O.co2 227  ASP227     -0.2456
     18  N         70.9600   18.0230    5.0240 N.3   229  ARG229     -0.1231
     19  CA        72.1350   17.8610    4.1770 C.3   229  ARG229      0.1694
     20  C         73.4210   18.2400    4.8990 C.2   229  ARG229      0.2592
     21  O         73.5360   19.3680    5.4460 O.2   229  ARG229     -0.2718
     22  CB        71.9930   18.6580    2.8740 C.3   229  ARG229      0.0321
     23  CG        73.1990   18.4100    1.9000 C.3   229  ARG229      0.0489
     24  CD        72.9660   19.1030    0.5500 C.3   229  ARG229      0.2205
     25  NE        74.1810   18.9780   -0.2820 N.pl3 229  ARG229     -0.0865
     26  CZ        74.1920   19.1000   -1.6060 C.cat 229  ARG229      0.5346
     27  NH1       73.0760   19.3490   -2.2740 N.pl3 229  ARG229      0.1354
     28  NH2       75.3360   18.9390   -2.2600 N.pl3 229  ARG229      0.1354
     29  N         74.3550   17.2800    4.9360 N.am  230  ALA230     -0.1966
     30  CA        75.6880   17.4970    5.5510 C.3   230  ALA230      0.1728
     31  C         75.6460   17.9390    7.0090 C.2   230  ALA230      0.2616
     32  O         76.5860   18.6010    7.5080 O.2   230  ALA230     -0.2715
     33  CB        76.5650   18.4810    4.6800 C.3   230  ALA230      0.0334
     34  N         74.5680   17.5780    7.6990 N.am  231  SER231     -0.1950
     35  CA        74.3690   18.0150    9.0780 C.3   231  SER231      0.1924
     36  C         74.6490   19.5150    9.2160 C.2   231  SER231      0.2314
     37  O         75.2050   19.9770   10.2490 O.2   231  SER231     -0.2863
     38  CB        75.2270   17.2370   10.0750 C.3   231  SER231      0.2116
     39  OG        75.0590   15.8200    9.9920 O.3   231  SER231     -0.2180
     40  N         67.3030   16.7170    2.0770 N.3   239  ILE239     -0.1245
     41  CA        67.4040   15.8620    0.8940 C.3   239  ILE239      0.1561
     42  C         66.8880   14.4940    1.2730 C.2   239  ILE239      0.2260
     43  O         66.7000   14.2240    2.4770 O.2   239  ILE239     -0.2867
     44  CB        68.8750   15.7190    0.4290 C.3   239  ILE239      0.0252
     45  CG1       69.7740   15.2310    1.6110 C.3   239  ILE239      0.0019
     46  CG2       69.3590   17.0670   -0.1490 C.3   239  ILE239      0.0019
     47  CD1       71.2290   14.8050    1.1060 C.3   239  ILE239      0.0001
     48  N         68.2160   10.5490    1.3520 N.3   241  PHE241     -0.1241
     49  CA        69.5280    9.9500    1.4220 C.3   241  PHE241      0.1605
     50  C         69.3890    8.5800    2.0450 C.2   241  PHE241      0.2264
     51  O         68.4650    8.3260    2.8580 O.2   241  PHE241     -0.2867
     52  CB        70.4350   10.8290    2.3130 C.3   241  PHE241      0.0534
     53  CG        71.9290   10.5920    2.0880 C.ar  241  PHE241     -0.0203
     54  CD1       72.5540   11.0710    0.9340 C.ar  241  PHE241     -0.0042
     55  CD2       72.6850    9.8420    3.0100 C.ar  241  PHE241     -0.0042
     56  CE1       73.9600   10.8130    0.7020 C.ar  241  PHE241     -0.0003
     57  CE2       74.0540    9.5930    2.7900 C.ar  241  PHE241     -0.0003
     58  CZ        74.6870   10.0620    1.6510 C.ar  241  PHE241     -0.0000
     59  N         71.1620    6.1530    7.6400 N.3   244  THR244     -0.1218
     60  CA        72.4510    5.9600    8.3650 C.3   244  THR244      0.1862
     61  C         72.2670    5.8480    9.8660 C.2   244  THR244      0.2287
     62  O         73.2020    5.4950   10.5840 O.2   244  THR244     -0.2866
     63  CB        73.3920    7.1740    8.1790 C.3   244  THR244      0.1770
     64  OG1       72.6830    8.3180    8.6740 O.3   244  THR244     -0.2211
     65  CG2       73.7220    7.3950    6.7130 C.3   244  THR244      0.0375
     66  N         72.0610    8.3890   11.7550 N.3   246  ASN246     -0.1240
     67  CA        72.7760    9.5640   12.3290 C.3   246  ASN246      0.1653
     68  C         71.7740   10.6560   12.7880 C.2   246  ASN246      0.2266
     69  O         70.6140   10.6530   12.3490 O.2   246  ASN246     -0.2867
     70  CB        73.7130   10.1610   11.3130 C.3   246  ASN246      0.1155
     71  CG        74.9070    9.2390   11.0130 C.2   246  ASN246      0.2627
     72  OD1       75.2980    8.3890   11.8570 O.2   246  ASN246     -0.2716
     73  ND2       75.5030    9.4310    9.8540 N.am  246  ASN246     -0.0877
     74  N         71.2560   13.6170   11.9890 N.3   248  ASN248     -0.1225
     75  CA        70.6390   14.4870   10.9440 C.3   248  ASN248      0.1785
     76  C         69.5400   13.7630   10.1640 C.2   248  ASN248      0.2597
     77  O         69.0240   14.3020    9.1770 O.2   248  ASN248     -0.2718
     78  CB        71.6880   15.0380    9.9720 C.3   248  ASN248      0.1169
     79  CG        72.3100   13.9450    9.0950 C.2   248  ASN248      0.2627
     80  OD1       72.5270   12.8270    9.5800 O.2   248  ASN248     -0.2716
     81  ND2       72.5690   14.2490    7.8050 N.am  248  ASN248     -0.0877
     82  N         69.2160   12.5240   10.5800 N.am  249  GLN249     -0.1979
     83  CA        68.1450   11.7720    9.9570 C.3   249  GLN249      0.1601
     84  C         67.1080   11.3250   10.9980 C.2   249  GLN249      0.2287
     85  O         66.2260   10.4950   10.6860 O.2   249  GLN249     -0.2864
     86  CB        68.6990   10.4880    9.2600 C.3   249  GLN249      0.0394
     87  CG        69.5180   10.7770    7.9860 C.3   249  GLN249      0.0908
     88  CD        69.8690    9.4950    7.2620 C.2   249  GLN249      0.2608
     89  OE1       69.5850    8.4110    7.7720 O.2   249  GLN249     -0.2717
     90  NE2       70.4840    9.6050    6.0800 N.am  249  GLN249     -0.0878
@<TRIPOS>BOND
     1     9     8    1
     2     8     7    1
     3     4     3    2
     4     3     2    1
     5     5     2    1
     6     5     6    1
     7     1     2    1
     8     7     6    1
     9    27    26    1
    10    28    26    1
    11    26    25    2
    12    25    24    1
    13    46    44    1
    14    44    41    1
    15    44    45    1
    16    24    23    1
    17    56    54   ar
    18    56    58   ar
    19    41    42    1
    20    41    40    1
    21    54    53   ar
    22    47    45    1
    23    42    43    2
    24    48    49    1
    25    49    50    1
    26    49    52    1
    27    58    57   ar
    28    23    22    1
    29    50    51    2
    30    53    52    1
    31    53    55   ar
    32    57    55   ar
    33    22    19    1
    34    19    20    1
    35    19    18    1
    36    33    30    1
    37    13    12    2
    38    14    15    1
    39    14    11    1
    40    20    29   am
    41    20    21    2
    42    29    30    1
    43    17    15   ar
    44    15    16   ar
    45    10    11    1
    46    30    31    1
    47    12    11    1
    48    90    88   am
    49    65    63    1
    50    31    32    2
    51    31    34   am
    52    88    89    2
    53    88    87    1
    54    59    60    1
    55    34    35    1
    56    81    79   am
    57    87    86    1
    58    63    60    1
    59    63    64    1
    60    60    61    1
    61    35    36    1
    62    35    38    1
    63    79    80    2
    64    79    78    1
    65    77    76    2
    66    36    37    2
    67    86    83    1
    68    73    71   am
    69    61    62    2
    70    83    82    1
    71    83    84    1
    72    78    75    1
    73    39    38    1
    74    76    82   am
    75    76    75    1
    76    85    84    2
    77    75    74    1
    78    71    70    1
    79    71    72    2
    80    70    67    1
    81    66    67    1
    82    67    68    1
    83    69    68    2
