@<TRIPOS>MOLECULE
tmp/3ca8A04.pdb
 89 86 0 0 0
SMALL
GASTEIGER

@<TRIPOS>ATOM
      1  N         89.9400   11.7460   25.4090 N.3   130  ILE130     -0.1245
      2  CA        89.8580   12.9250   26.2520 C.3   130  ILE130      0.1561
      3  C         90.5330   12.7150   27.6340 C.2   130  ILE130      0.2260
      4  O         91.2560   13.6230   28.1200 O.2   130  ILE130     -0.2867
      5  CB        88.3300   13.3760   26.4150 C.3   130  ILE130      0.0252
      6  CG1       87.7880   14.0020   25.1140 C.3   130  ILE130      0.0019
      7  CG2       88.2010   14.3010   27.5940 C.3   130  ILE130      0.0019
      8  CD1       86.2030   13.9910   25.0290 C.3   130  ILE130      0.0001
      9  N         94.2650   12.9270   27.1060 N.3   133  LEU133     -0.1231
     10  CA        94.6280   14.3100   26.8540 C.3   133  LEU133      0.1693
     11  C         94.6340   15.1780   28.1230 C.2   133  LEU133      0.2592
     12  O         95.4020   16.1280   28.2110 O.2   133  LEU133     -0.2718
     13  CB        93.6840   14.9020   25.8410 C.3   133  LEU133      0.0284
     14  CG        93.9160   14.3960   24.4300 C.3   133  LEU133      0.0019
     15  CD1       92.8260   14.9420   23.5130 C.3   133  LEU133      0.0001
     16  CD2       95.2740   14.8480   23.9450 C.3   133  LEU133      0.0001
     17  N         93.7430   14.8550   29.0630 N.am  134  ASN134     -0.1974
     18  CA        93.5380   15.6470   30.2830 C.3   134  ASN134      0.1688
     19  C         94.6570   15.3490   31.2810 C.2   134  ASN134      0.2292
     20  O         94.8310   16.0780   32.2180 O.2   134  ASN134     -0.2864
     21  CB        92.1520   15.3410   30.9030 C.3   134  ASN134      0.1181
     22  CG        91.5820   16.4800   31.7580 C.2   134  ASN134      0.2629
     23  OD1       91.5660   17.6550   31.3500 O.2   134  ASN134     -0.2716
     24  ND2       90.9980   16.1170   32.8990 N.am  134  ASN134     -0.0877
     25  N        100.0190   20.8830   27.9620 N.3   139  ARG139     -0.1231
     26  CA        98.5680   21.0070   27.7690 C.3   139  ARG139      0.1694
     27  C         98.1750   21.0880   26.2930 C.2   139  ARG139      0.2592
     28  O         98.7760   21.8500   25.5380 O.2   139  ARG139     -0.2718
     29  CB        98.0780   22.2740   28.4760 C.3   139  ARG139      0.0321
     30  CG        96.7410   22.1400   29.1360 C.3   139  ARG139      0.0489
     31  CD        96.8780   21.4450   30.4850 C.3   139  ARG139      0.2205
     32  NE        95.6350   20.7650   30.8250 N.pl3 139  ARG139     -0.0865
     33  CZ        95.4960   19.4570   31.0360 C.cat 139  ARG139      0.5346
     34  NH1       96.5310   18.6250   30.9920 N.pl3 139  ARG139      0.1354
     35  NH2       94.2980   18.9880   31.3270 N.pl3 139  ARG139      0.1354
     36  N         97.1620   20.3160   25.8960 N.am  140  VAL140     -0.1966
     37  CA        96.6440   20.3370   24.5180 C.3   140  VAL140      0.1727
     38  C         95.4420   21.2640   24.3580 C.2   140  VAL140      0.2616
     39  O         94.4060   21.0850   24.9970 O.2   140  VAL140     -0.2715
     40  CB        96.2540   18.8980   24.0470 C.3   140  VAL140      0.0290
     41  CG1       95.5020   18.9340   22.7120 C.3   140  VAL140      0.0023
     42  CG2       97.5030   18.0220   23.9250 C.3   140  VAL140      0.0023
     43  N         95.5700   22.2550   23.4840 N.am  141  HIS141     -0.1973
     44  CA        94.4780   23.1920   23.2220 C.3   141  HIS141      0.1656
     45  C         93.6820   22.8730   21.9770 C.2   141  HIS141      0.2291
     46  O         92.4680   23.1360   21.9170 O.2   141  HIS141     -0.2864
     47  CB        95.0310   24.6240   23.1720 C.3   141  HIS141      0.0771
     48  CG        95.4450   25.1010   24.5180 C.ar  141  HIS141      0.0820
     49  ND1       96.7600   25.1320   24.9290 N.ar  141  HIS141     -0.2267
     50  CD2       94.7040   25.4550   25.5930 C.ar  141  HIS141      0.1154
     51  CE1       96.8120   25.5420   26.1830 C.ar  141  HIS141      0.1986
     52  NE2       95.5780   25.7370   26.6120 N.ar  141  HIS141     -0.2212
     53  N         93.2180   19.7800   18.8610 N.3   143  ALA143     -0.1245
     54  CA        93.5810   18.4230   18.3960 C.3   143  ALA143      0.1562
     55  C         92.8750   18.1920   17.0830 C.2   143  ALA143      0.2260
     56  O         91.7300   18.6110   16.9350 O.2   143  ALA143     -0.2867
     57  CB        93.1540   17.3460   19.4090 C.3   143  ALA143      0.0290
     58  N         82.8350   17.7070   25.5690 N.3   163  THR163     -0.1218
     59  CA        83.5510   18.9020   26.0120 C.3   163  THR163      0.1862
     60  C         82.8830   20.2350   25.6440 C.2   163  THR163      0.2287
     61  O         83.2640   21.2790   26.1690 O.2   163  THR163     -0.2866
     62  CB        84.9690   18.9440   25.3810 C.3   163  THR163      0.1770
     63  OG1       84.8440   19.0610   23.9580 O.3   163  THR163     -0.2211
     64  CG2       85.7890   17.7300   25.7600 C.3   163  THR163      0.0375
     65  N         88.4450   23.6970   19.2500 N.3   171  ARG171     -0.1231
     66  CA        89.4780   22.8540   19.8470 C.3   171  ARG171      0.1694
     67  C         89.6080   21.4940   19.1360 C.2   171  ARG171      0.2592
     68  O         90.6730   20.8660   19.1820 O.2   171  ARG171     -0.2718
     69  CB        89.1830   22.5950   21.3080 C.3   171  ARG171      0.0321
     70  CG        87.9790   21.6610   21.5540 C.3   171  ARG171      0.0489
     71  CD        87.2190   22.0470   22.7770 C.3   171  ARG171      0.2205
     72  NE        87.8230   21.5970   24.0260 N.pl3 171  ARG171     -0.0865
     73  CZ        87.5000   22.0880   25.2280 C.cat 171  ARG171      0.5346
     74  NH1       86.6180   23.0830   25.3510 N.pl3 171  ARG171      0.1354
     75  NH2       88.0770   21.5980   26.3170 N.pl3 171  ARG171      0.1354
     76  N         88.5200   21.0330   18.5270 N.am  172  TRP172     -0.1976
     77  CA        88.5090   19.7880   17.7480 C.3   172  TRP172      0.1640
     78  C         88.4550   20.1460   16.2560 C.2   172  TRP172      0.2290
     79  O         87.4880   20.7410   15.7650 O.2   172  TRP172     -0.2864
     80  CB        87.3260   18.9160   18.1410 C.3   172  TRP172      0.0576
     81  CG        87.2350   18.5810   19.6140 C.ar  172  TRP172      0.0006
     82  CD1       86.2630   19.0060   20.4860 C.ar  172  TRP172      0.0946
     83  CD2       88.1530   17.7980   20.3940 C.ar  172  TRP172      0.0152
     84  NE1       86.4970   18.4840   21.7370 N.ar  172  TRP172     -0.2442
     85  CE2       87.6540   17.7520   21.7070 C.ar  172  TRP172      0.0810
     86  CE3       89.3340   17.0970   20.1010 C.ar  172  TRP172      0.0012
     87  CZ2       88.2990   17.0290   22.7430 C.ar  172  TRP172      0.0191
     88  CZ3       89.9780   16.3670   21.1490 C.ar  172  TRP172      0.0001
     89  CH2       89.4560   16.3510   22.4370 C.ar  172  TRP172      0.0015
@<TRIPOS>BOND
     1    79    78    2
     2    78    77    1
     3    56    55    2
     4    55    54    1
     5    77    80    1
     6    77    76    1
     7    80    81    1
     8    54    53    1
     9    54    57    1
    10    76    67   am
    11    67    68    2
    12    67    66    1
    13    65    66    1
    14    81    83   ar
    15    81    82   ar
    16    66    69    1
    17    86    83   ar
    18    86    88   ar
    19    83    85   ar
    20    82    84   ar
    21    88    89   ar
    22    69    70    1
    23    70    71    1
    24    85    84   ar
    25    85    87   ar
    26    46    45    2
    27    45    44    1
    28    89    87   ar
    29    41    40    1
    30    71    72    1
    31    47    44    1
    32    47    48    1
    33    44    43    1
    34    43    38   am
    35    15    14    1
    36    42    40    1
    37    16    14    1
    38    63    62    1
    39    72    73    2
    40    40    37    1
    41    38    37    1
    42    38    39    2
    43    14    13    1
    44    37    36    1
    45    48    49   ar
    46    48    50   ar
    47    49    51   ar
    48     8     6    1
    49     6     5    1
    50    73    74    1
    51    73    75    1
    52    62    64    1
    53    62    59    1
    54     1     2    1
    55    28    27    2
    56    58    59    1
    57    50    52   ar
    58    60    59    1
    59    60    61    2
    60    13    10    1
    61    36    27   am
    62    51    52   ar
    63     2     5    1
    64     2     3    1
    65    27    26    1
    66     5     7    1
    67    10     9    1
    68    10    11    1
    69     3     4    2
    70    26    25    1
    71    26    29    1
    72    11    12    2
    73    11    17   am
    74    29    30    1
    75    17    18    1
    76    30    31    1
    77    18    21    1
    78    18    19    1
    79    31    32    1
    80    32    33    2
    81    21    22    1
    82    34    33    1
    83    33    35    1
    84    19    20    2
    85    23    22    2
    86    22    24   am
