@<TRIPOS>MOLECULE
tmp/3ca8A01.pdb
 87 85 0 0 0
SMALL
GASTEIGER

@<TRIPOS>ATOM
      1  N         89.8450    1.2250    9.4470 N.3    42  ALA42      -0.1231
      2  CA        90.5300    0.3380    8.4970 C.3    42  ALA42       0.1694
      3  C         90.9300    0.9570    7.1530 C.2    42  ALA42       0.2591
      4  O         91.3830    0.1890    6.2420 O.2    42  ALA42      -0.2718
      5  CB        89.7310   -0.9240    8.2750 C.3    42  ALA42       0.0304
      6  N         90.7450    2.2820    7.0180 N.am   43  VAL43      -0.1980
      7  CA        90.8560    2.9540    5.7480 C.3    43  VAL43       0.1595
      8  C         92.2950    3.4470    5.7210 C.2    43  VAL43       0.2287
      9  O         92.6090    4.4030    6.3660 O.2    43  VAL43      -0.2864
     10  CB        89.9010    4.0710    5.5760 C.3    43  VAL43       0.0276
     11  CG1       90.0810    4.6960    4.1660 C.3    43  VAL43       0.0022
     12  CG2       88.3950    3.5350    5.7330 C.3    43  VAL43       0.0022
     13  N         87.9150   -5.7050   10.1000 N.3    73  PHE73      -0.1241
     14  CA        88.2080   -4.9720    8.8410 C.3    73  PHE73       0.1605
     15  C         89.6510   -4.4680    8.7650 C.2    73  PHE73       0.2264
     16  O         90.2980   -4.6040    7.7370 O.2    73  PHE73      -0.2867
     17  CB        87.2310   -3.8660    8.5720 C.3    73  PHE73       0.0534
     18  CG        85.8420   -4.3780    8.3010 C.ar   73  PHE73      -0.0203
     19  CD1       85.4740   -4.7630    7.0320 C.ar   73  PHE73      -0.0042
     20  CD2       84.9520   -4.5220    9.3300 C.ar   73  PHE73      -0.0042
     21  CE1       84.1800   -5.2550    6.7810 C.ar   73  PHE73      -0.0003
     22  CE2       83.6650   -5.0060    9.1000 C.ar   73  PHE73      -0.0003
     23  CZ        83.2980   -5.3720    7.8200 C.ar   73  PHE73      -0.0000
     24  N         91.9940   -7.3500    7.9280 N.3    76  SER76      -0.1202
     25  CA        91.9720   -7.5700    6.4720 C.3    76  SER76       0.2020
     26  C         92.6950   -6.4770    5.6530 C.2    76  SER76       0.2618
     27  O         93.3990   -6.7820    4.6520 O.2    76  SER76      -0.2717
     28  CB        90.5190   -7.7050    6.0160 C.3    76  SER76       0.2103
     29  OG        90.0620   -8.9020    6.4720 O.3    76  SER76      -0.2182
     30  N         92.5800   -5.2280    6.1040 N.am   77  ALA77      -0.1979
     31  CA        93.0940   -4.1230    5.3470 C.3    77  ALA77       0.1597
     32  C         94.6190   -4.1940    5.4790 C.2    77  ALA77       0.2287
     33  O         95.3240   -3.8460    4.5530 O.2    77  ALA77      -0.2864
     34  CB        92.5720   -2.8200    5.8540 C.3    77  ALA77       0.0319
     35  N         96.0810   -7.1720    3.1080 N.3    80  GLN80      -0.1245
     36  CA        96.0790   -6.8670    1.6620 C.3    80  GLN80       0.1566
     37  C         96.9400   -5.6630    1.2890 C.2    80  GLN80       0.2260
     38  O         96.9920   -5.2710    0.1270 O.2    80  GLN80      -0.2867
     39  CB        94.6270   -6.6420    1.1750 C.3    80  GLN80       0.0367
     40  CG        94.0450   -5.3700    1.6550 C.3    80  GLN80       0.0905
     41  CD        92.7990   -4.9570    0.9310 C.2    80  GLN80       0.2608
     42  OE1       92.0740   -5.8120    0.4010 O.2    80  GLN80      -0.2717
     43  NE2       92.5230   -3.6440    0.9050 N.am   80  GLN80      -0.0878
     44  N         93.0790    0.9720   -0.9590 N.3   197  GLY197     -0.1210
     45  CA        92.6290    0.6010    0.3590 C.3   197  GLY197      0.1956
     46  C         91.2330    1.0660    0.7250 C.2   197  GLY197      0.2612
     47  O         90.8880    1.0030    1.8760 O.2   197  GLY197     -0.2717
     48  N         90.4280    1.5210   -0.2480 N.am  198  LEU198     -0.1965
     49  CA        89.0750    1.9780    0.0530 C.3   198  LEU198      0.1728
     50  C         88.1350    0.7860    0.3290 C.2   198  LEU198      0.2616
     51  O         88.3900   -0.3530   -0.0750 O.2   198  LEU198     -0.2715
     52  CB        88.5250    2.8860   -1.0890 C.3   198  LEU198      0.0311
     53  CG        89.3060    4.1990   -1.3820 C.3   198  LEU198      0.0022
     54  CD1       88.6120    5.0490   -2.4480 C.3   198  LEU198      0.0001
     55  CD2       89.5770    5.0410   -0.1630 C.3   198  LEU198      0.0001
     56  N         87.0450    1.0280    1.0620 N.am  199  TRP199     -0.1960
     57  CA        86.0300   -0.0110    1.2590 C.3   199  TRP199      0.1756
     58  C         85.5210   -0.4700   -0.1050 C.2   199  TRP199      0.2461
     59  O         85.4940    0.3360   -1.0350 O.2   199  TRP199     -0.2730
     60  CB        84.7840    0.5180    2.0720 C.3   199  TRP199      0.0590
     61  CG        84.9930    1.7150    2.9520 C.ar  199  TRP199      0.0006
     62  CD1       85.0010    1.7200    4.2760 C.ar  199  TRP199      0.0946
     63  CD2       85.1380    3.0620    2.5490 C.ar  199  TRP199      0.0152
     64  NE1       85.1750    2.9500    4.7540 N.ar  199  TRP199     -0.2442
     65  CE2       85.2820    3.8170    3.7150 C.ar  199  TRP199      0.0810
     66  CE3       85.1910    3.7180    1.3060 C.ar  199  TRP199      0.0012
     67  CZ2       85.4710    5.1940    3.7080 C.ar  199  TRP199      0.0191
     68  CZ3       85.3960    5.1200    1.3060 C.ar  199  TRP199      0.0001
     69  CH2       85.5150    5.8190    2.5000 C.ar  199  TRP199      0.0015
     70  N         85.0680   -1.7460   -0.2080 N.am  200  PRO200     -0.2727
     71  CA        84.2160   -2.1300   -1.3010 C.3   200  PRO200      0.1402
     72  C         82.9760   -1.2200   -1.2690 C.2   200  PRO200      0.2269
     73  O         82.5840   -0.7600   -0.2220 O.2   200  PRO200     -0.2865
     74  CB        83.8420   -3.5630   -0.9510 C.3   200  PRO200      0.0296
     75  CG        84.9460   -4.0230   -0.0930 C.3   200  PRO200      0.0237
     76  CD        85.3270   -2.8720    0.6990 C.3   200  PRO200      0.0939
     77  N         80.2330   -2.0480    1.1990 N.3   203  ARG203     -0.1245
     78  CA        80.5780   -1.7450    2.5770 C.3   203  ARG203      0.1563
     79  C         80.4730   -0.2500    2.8560 C.2   203  ARG203      0.2260
     80  O         80.0040    0.1210    3.9040 O.2   203  ARG203     -0.2867
     81  CB        82.0100   -2.2400    2.8890 C.3   203  ARG203      0.0307
     82  CG        82.5230   -1.8730    4.2490 C.3   203  ARG203      0.0489
     83  CD        81.7570   -2.5750    5.3550 C.3   203  ARG203      0.2205
     84  NE        82.2250   -2.1900    6.6840 N.pl3 203  ARG203     -0.0865
     85  CZ        81.5640   -2.4360    7.8070 C.cat 203  ARG203      0.5346
     86  NH1       80.4210   -3.1030    7.7750 N.pl3 203  ARG203      0.1354
     87  NH2       82.0370   -2.0320    8.9820 N.pl3 203  ARG203      0.1354
@<TRIPOS>BOND
     1    54    53    1
     2    53    52    1
     3    53    55    1
     4    71    72    1
     5    71    74    1
     6    71    70    1
     7    72    73    2
     8    52    49    1
     9    59    58    2
    10    44    45    1
    11    74    75    1
    12    48    49    1
    13    48    46   am
    14    70    58   am
    15    70    76    1
    16    58    57    1
    17    75    76    1
    18    51    50    2
    19    49    50    1
    20    38    37    2
    21    50    56   am
    22    45    46    1
    23    42    41    2
    24    46    47    2
    25    43    41   am
    26    41    40    1
    27    56    57    1
    28    39    40    1
    29    39    36    1
    30    77    78    1
    31    57    60    1
    32    37    36    1
    33    66    68   ar
    34    66    63   ar
    35    68    69   ar
    36    36    35    1
    37    60    61    1
    38    69    67   ar
    39    63    61   ar
    40    63    65   ar
    41    78    79    1
    42    78    81    1
    43    79    80    2
    44    81    82    1
    45    61    62   ar
    46    67    65   ar
    47    65    64   ar
    48    11    10    1
    49    82    83    1
    50    62    64   ar
    51    33    32    2
    52    27    26    2
    53    31    32    1
    54    31    34    1
    55    31    30    1
    56    83    84    1
    57    10    12    1
    58    10     7    1
    59    26    30   am
    60    26    25    1
    61     8     7    1
    62     8     9    2
    63     7     6    1
    64    28    25    1
    65    28    29    1
    66     4     3    2
    67    25    24    1
    68    84    85    2
    69    21    19   ar
    70    21    23   ar
    71     6     3   am
    72    19    18   ar
    73     3     2    1
    74    16    15    2
    75    86    85    1
    76    85    87    1
    77    23    22   ar
    78     5     2    1
    79    18    17    1
    80    18    20   ar
    81     2     1    1
    82    17    14    1
    83    15    14    1
    84    14    13    1
    85    22    20   ar
