@<TRIPOS>MOLECULE
tmp/3cajA00.pdb
 129 126 0 0 0
SMALL
GASTEIGER

@<TRIPOS>ATOM
      1  N        -12.6650    6.1760   11.1520 N.3    90  GLN90      -0.1245
      2  CA       -12.3660    5.0130   10.3170 C.3    90  GLN90       0.1566
      3  C        -12.5150    3.7290   11.1090 C.2    90  GLN90       0.2260
      4  O        -12.6070    3.7570   12.3330 O.2    90  GLN90      -0.2867
      5  CB       -10.9210    5.0880    9.8040 C.3    90  GLN90       0.0367
      6  CG        -9.8810    5.2190   10.9330 C.3    90  GLN90       0.0905
      7  CD        -9.0550    3.9590   11.1730 C.2    90  GLN90       0.2608
      8  OE1       -9.5700    2.8400   11.1500 O.2    90  GLN90      -0.2717
      9  NE2       -7.7640    4.1440   11.4300 N.am   90  GLN90      -0.0878
     10  N        -11.2030   -0.6440   10.9070 N.3    92  HIS92      -0.1241
     11  CA       -10.3390   -1.6080   10.2460 C.3    92  HIS92       0.1621
     12  C        -10.4090   -2.8870   11.0530 C.2    92  HIS92       0.2264
     13  O        -11.1070   -2.9430   12.0660 O.2    92  HIS92      -0.2867
     14  CB        -8.8920   -1.1090   10.2150 C.3    92  HIS92       0.0745
     15  CG        -8.3400   -0.7810   11.5670 C.ar   92  HIS92       0.0817
     16  ND1       -8.5180    0.4470   12.1670 N.ar   92  HIS92      -0.2268
     17  CD2       -7.6300   -1.5290   12.4450 C.ar   92  HIS92       0.1154
     18  CE1       -7.9380    0.4430   13.3540 C.ar   92  HIS92       0.1986
     19  NE2       -7.3920   -0.7440   13.5470 N.ar   92  HIS92      -0.2212
     20  N         -8.0980   -6.6880   12.3350 N.3    94  HIS94      -0.1241
     21  CA        -6.8370   -7.3670   12.5860 C.3    94  HIS94       0.1621
     22  C         -7.2730   -8.8180   12.4920 C.2    94  HIS94       0.2264
     23  O         -8.2890   -9.1950   13.0790 O.2    94  HIS94      -0.2867
     24  CB        -6.3190   -7.0640   13.9900 C.3    94  HIS94       0.0745
     25  CG        -5.9660   -5.6270   14.1990 C.ar   94  HIS94       0.0817
     26  ND1       -4.7290   -5.1090   13.8810 N.ar   94  HIS94      -0.2268
     27  CD2       -6.7050   -4.5870   14.6530 C.ar   94  HIS94       0.1154
     28  CE1       -4.7210   -3.8110   14.1310 C.ar   94  HIS94       0.1986
     29  NE2       -5.9080   -3.4710   14.6010 N.ar   94  HIS94      -0.2212
     30  N        -11.9980   -2.7440   14.6850 N.3   117  HIS117     -0.1241
     31  CA       -11.7210   -1.5380   15.4510 C.3   117  HIS117      0.1621
     32  C        -12.3660   -0.3230   14.8070 C.2   117  HIS117      0.2264
     33  O        -12.0020    0.0640   13.7000 O.2   117  HIS117     -0.2867
     34  CB       -10.2110   -1.3130   15.5590 C.3   117  HIS117      0.0745
     35  CG        -9.5250   -2.2530   16.5010 C.ar  117  HIS117      0.0817
     36  ND1       -8.1570   -2.4150   16.5280 N.ar  117  HIS117     -0.2268
     37  CD2      -10.0190   -3.0710   17.4620 C.ar  117  HIS117      0.1154
     38  CE1       -7.8360   -3.2910   17.4630 C.ar  117  HIS117      0.1986
     39  NE2       -8.9480   -3.7040   18.0440 N.ar  117  HIS117     -0.2212
     40  N        -12.5940    3.4230   15.1310 N.3   119  VAL119     -0.1245
     41  CA       -11.8440    4.5120   15.7500 C.3   119  VAL119      0.1561
     42  C        -12.5860    5.8500   15.7930 C.2   119  VAL119      0.2260
     43  O        -13.1240    6.2980   14.7830 O.2   119  VAL119     -0.2867
     44  CB       -10.4950    4.6830   15.0070 C.3   119  VAL119      0.0252
     45  CG1       -9.5600    5.5920   15.7890 C.3   119  VAL119      0.0019
     46  CG2       -9.8600    3.3200   14.7860 C.3   119  VAL119      0.0019
     47  N         -8.5100   14.8410   14.7380 N.3   128  PHE128     -0.1241
     48  CA        -7.7600   13.6500   15.1030 C.3   128  PHE128      0.1605
     49  C         -6.3090   13.9180   15.4840 C.2   128  PHE128      0.2264
     50  O         -5.8210   13.3840   16.4780 O.2   128  PHE128     -0.2867
     51  CB        -7.8260   12.6270   13.9620 C.3   128  PHE128      0.0534
     52  CG        -7.0950   11.3480   14.2510 C.ar  128  PHE128     -0.0203
     53  CD1       -5.7320   11.2410   14.0120 C.ar  128  PHE128     -0.0042
     54  CD2       -7.7680   10.2560   14.7870 C.ar  128  PHE128     -0.0042
     55  CE1       -5.0440   10.0660   14.3000 C.ar  128  PHE128     -0.0003
     56  CE2       -7.0900    9.0740   15.0800 C.ar  128  PHE128     -0.0003
     57  CZ        -5.7250    8.9800   14.8370 C.ar  128  PHE128     -0.0000
     58  N         -4.7790   12.9370   19.4080 N.3   132  VAL132     -0.1245
     59  CA        -3.7320   11.9840   19.7480 C.3   132  VAL132      0.1561
     60  C         -2.6120   12.5730   20.6050 C.2   132  VAL132      0.2260
     61  O         -1.5870   11.9340   20.8300 O.2   132  VAL132     -0.2867
     62  CB        -3.1390   11.3250   18.4820 C.3   132  VAL132      0.0252
     63  CG1       -4.2230   10.5400   17.7620 C.3   132  VAL132      0.0019
     64  CG2       -2.5500   12.3740   17.5660 C.3   132  VAL132      0.0019
     65  N        -11.8270    3.7060   21.0120 N.3   140  VAL140     -0.1245
     66  CA       -11.9270    2.6840   19.9890 C.3   140  VAL140      0.1561
     67  C        -12.8830    1.6150   20.4800 C.2   140  VAL140      0.2260
     68  O        -12.7550    1.1160   21.6030 O.2   140  VAL140     -0.2867
     69  CB       -10.5550    2.0400   19.6750 C.3   140  VAL140      0.0252
     70  CG1      -10.7130    0.9900   18.5680 C.3   140  VAL140      0.0019
     71  CG2       -9.5660    3.1100   19.2320 C.3   140  VAL140      0.0019
     72  N         -2.9430    2.9740   21.0990 N.3   195  LEU195     -0.1231
     73  CA        -3.1430    2.5630   19.7200 C.3   195  LEU195      0.1693
     74  C         -2.3520    1.2570   19.7180 C.2   195  LEU195      0.2593
     75  O         -1.3590    1.1520   20.4410 O.2   195  LEU195     -0.2718
     76  CB        -2.4970    3.5760   18.7750 C.3   195  LEU195      0.0284
     77  CG        -3.0980    4.9840   18.7940 C.3   195  LEU195      0.0019
     78  CD1       -2.2280    5.9240   17.9770 C.3   195  LEU195      0.0001
     79  CD2       -4.5210    4.9350   18.2470 C.3   195  LEU195      0.0001
     80  N         -2.7760    0.2660   18.9370 N.am  196  THR196     -0.1939
     81  CA        -2.0690   -1.0200   18.9170 C.3   196  THR196      0.2028
     82  C         -1.0190   -1.1530   17.8200 C.2   196  THR196      0.2643
     83  O         -0.4080   -2.2120   17.6590 O.2   196  THR196     -0.2714
     84  CB        -3.0410   -2.1920   18.7960 C.3   196  THR196      0.1808
     85  OG1       -3.6940   -2.1350   17.5260 O.3   196  THR196     -0.2208
     86  CG2       -4.0810   -2.1420   19.9140 C.3   196  THR196      0.0379
     87  N         -0.8290   -0.0920   17.0440 N.am  197  THR197     -0.1937
     88  CA         0.2100   -0.0890   16.0200 C.3   197  THR197      0.2013
     89  C          0.9540    1.2230   16.1950 C.2   197  THR197      0.2484
     90  O          0.4290    2.1640   16.7910 O.2   197  THR197     -0.2729
     91  CB        -0.3510   -0.1480   14.5770 C.3   197  THR197      0.1807
     92  OG1       -1.0750    1.0540   14.2830 O.3   197  THR197     -0.2208
     93  CG2       -1.2680   -1.3470   14.4140 C.3   197  THR197      0.0379
     94  N          2.1990    1.2940   15.7140 N.am  198  PRO198     -0.2715
     95  CA         2.9450    2.5450   15.8560 C.3   198  PRO198      0.1521
     96  C          2.0940    3.6970   15.3250 C.2   198  PRO198      0.2440
     97  O          1.3710    3.5340   14.3410 O.2   198  PRO198     -0.2731
     98  CB         4.1840    2.2860   15.0170 C.3   198  PRO198      0.0310
     99  CG         4.4520    0.8410   15.3020 C.3   198  PRO198      0.0237
    100  CD         3.0620    0.2170   15.1970 C.3   198  PRO198      0.0939
    101  N          2.1980    4.8890   15.9360 N.am  199  PRO199     -0.2727
    102  CA         3.0340    5.2920   17.0720 C.3   199  PRO199      0.1402
    103  C          2.6850    4.7820   18.4760 C.2   199  PRO199      0.2269
    104  O          3.2910    5.2260   19.4470 O.2   199  PRO199     -0.2865
    105  CB         2.9940    6.8160   16.9920 C.3   199  PRO199      0.0296
    106  CG         1.6170    7.0730   16.5060 C.3   199  PRO199      0.0237
    107  CD         1.4680    6.0510   15.3960 C.3   199  PRO199      0.0939
    108  N          0.4740    5.4660   20.5700 N.3   201  LEU201     -0.1245
    109  CA         0.1540    6.5280   21.5160 C.3   201  LEU201      0.1561
    110  C         -0.8760    6.0990   22.5590 C.2   201  LEU201      0.2260
    111  O         -1.8290    5.3850   22.2490 O.2   201  LEU201     -0.2867
    112  CB        -0.3450    7.7550   20.7510 C.3   201  LEU201      0.0270
    113  CG         0.6300    8.2480   19.6820 C.3   201  LEU201      0.0019
    114  CD1       -0.0190    9.3660   18.8730 C.3   201  LEU201      0.0001
    115  CD2        1.9190    8.7160   20.3400 C.3   201  LEU201      0.0001
    116  N        -10.5280    2.2770   25.6460 N.3   206  TRP206     -0.1241
    117  CA       -11.0000    1.0960   24.9420 C.3   206  TRP206      0.1605
    118  C        -12.3490    0.6010   25.4250 C.2   206  TRP206      0.2264
    119  O        -12.6050    0.5210   26.6230 O.2   206  TRP206     -0.2867
    120  CB        -9.9840   -0.0510   25.0530 C.3   206  TRP206      0.0550
    121  CG        -8.8620    0.0420   24.0740 C.ar  206  TRP206      0.0003
    122  CD1       -7.6370    0.6190   24.2710 C.ar  206  TRP206      0.0946
    123  CD2       -8.8800   -0.4050   22.7150 C.ar  206  TRP206      0.0152
    124  NE1       -6.8960    0.5620   23.1130 N.ar  206  TRP206     -0.2442
    125  CE2       -7.6360   -0.0630   22.1420 C.ar  206  TRP206      0.0810
    126  CE3       -9.8310   -1.0630   21.9210 C.ar  206  TRP206      0.0012
    127  CZ2       -7.3160   -0.3540   20.8130 C.ar  206  TRP206      0.0191
    128  CZ3       -9.5130   -1.3530   20.6000 C.ar  206  TRP206      0.0001
    129  CH2       -8.2660   -0.9990   20.0590 C.ar  206  TRP206      0.0015
@<TRIPOS>BOND
     1     5     2    1
     2     5     6    1
     3    14    11    1
     4    14    15    1
     5    11    10    1
     6    11    12    1
     7     2     3    1
     8     2     1    1
     9     6     7    1
    10    12    13    2
    11     3     4    2
    12     8     7    2
    13     7     9   am
    14    15    16   ar
    15    15    17   ar
    16    16    18   ar
    17    20    21    1
    18    17    19   ar
    19    22    21    1
    20    22    23    2
    21    21    24    1
    22    18    19   ar
    23    33    32    2
    24    26    28   ar
    25    26    25   ar
    26    51    52    1
    27    51    48    1
    28    24    25    1
    29    53    52   ar
    30    53    55   ar
    31    28    29   ar
    32    25    27   ar
    33    52    54   ar
    34    92    91    1
    35    55    57   ar
    36    97    96    2
    37    93    91    1
    38    91    88    1
    39    29    27   ar
    40    30    31    1
    41    47    48    1
    42    43    42    2
    43    46    44    1
    44    54    56   ar
    45    32    31    1
    46    57    56   ar
    47    44    41    1
    48    44    45    1
    49    98    99    1
    50    98    95    1
    51    48    49    1
    52    40    41    1
    53   100    99    1
    54   100    94    1
    55    96    95    1
    56    96   101   am
    57   107   101    1
    58   107   106    1
    59    31    34    1
    60    49    50    2
    61    34    35    1
    62    94    95    1
    63    94    89   am
    64    41    42    1
    65   101   102    1
    66    88    89    1
    67    88    87    1
    68    89    90    2
    69    35    36   ar
    70    35    37   ar
    71   106   105    1
    72    36    38   ar
    73   105   102    1
    74    87    82   am
    75   102   103    1
    76    37    39   ar
    77    38    39   ar
    78    85    84    1
    79    64    62    1
    80    83    82    2
    81    63    62    1
    82    82    81    1
    83    78    77    1
    84    79    77    1
    85   103   104    2
    86    62    59    1
    87    70    69    1
    88    76    77    1
    89    76    73    1
    90    84    81    1
    91    84    86    1
    92   114   113    1
    93    81    80    1
    94    80    74   am
    95    71    69    1
    96    58    59    1
    97    69    66    1
    98   113   115    1
    99   113   112    1
   100    74    73    1
   101    74    75    2
   102    73    72    1
   103    59    60    1
   104    66    67    1
   105    66    65    1
   106   129   128   ar
   107   129   127   ar
   108    67    68    2
   109   108   109    1
   110   128   126   ar
   111    60    61    2
   112   112   109    1
   113   127   125   ar
   114   109   110    1
   115   126   123   ar
   116   125   123   ar
   117   125   124   ar
   118   111   110    2
   119   123   121   ar
   120   124   122   ar
   121   121   122   ar
   122   121   120    1
   123   117   120    1
   124   117   118    1
   125   117   116    1
   126   118   119    2
