@<TRIPOS>MOLECULE
tmp/3cakB00.pdb
 106 104 0 0 0
SMALL
GASTEIGER

@<TRIPOS>ATOM
      1  N        -11.2410   12.2970   -0.3430 N.3    37  GLU37      -0.1231
      2  CA       -11.2810   13.7040   -0.7190 C.3    37  GLU37       0.1699
      3  C        -10.1700   14.0700   -1.6930 C.2    37  GLU37       0.2592
      4  O        -10.2340   15.1160   -2.3450 O.2    37  GLU37      -0.2718
      5  CB       -11.2330   14.6170    0.5100 C.3    37  GLU37       0.0402
      6  CG       -12.3720   14.3670    1.4520 C.3    37  GLU37       0.1161
      7  CD       -12.1080   13.1640    2.3630 C.2    37  GLU37       0.3649
      8  OE1      -10.9120   12.7490    2.4840 O.co2  37  GLU37      -0.2457
      9  OE2      -13.1110   12.6540    2.9460 O.co2  37  GLU37      -0.2457
     10  N         -9.1540   13.2140   -1.7970 N.am   38  PHE38      -0.1962
     11  CA        -8.1780   13.3900   -2.8580 C.3    38  PHE38       0.1771
     12  C         -8.8480   13.4890   -4.2410 C.2    38  PHE38       0.2620
     13  O         -8.3130   14.1370   -5.1450 O.2    38  PHE38      -0.2715
     14  CB        -7.1280   12.2720   -2.8810 C.3    38  PHE38       0.0574
     15  CG        -6.0920   12.4760   -3.9550 C.ar   38  PHE38      -0.0200
     16  CD1       -4.9410   13.2260   -3.6960 C.ar   38  PHE38      -0.0042
     17  CD2       -6.3160   12.0010   -5.2530 C.ar   38  PHE38      -0.0042
     18  CE1       -4.0050   13.4600   -4.6960 C.ar   38  PHE38      -0.0003
     19  CE2       -5.3770   12.2360   -6.2630 C.ar   38  PHE38      -0.0003
     20  CZ        -4.2430   12.9590   -5.9950 C.ar   38  PHE38      -0.0000
     21  N         -9.9730   12.7950   -4.4040 N.am   39  PHE39      -0.1960
     22  CA       -10.6970   12.6770   -5.6670 C.3    39  PHE39       0.1771
     23  C        -11.9110   13.6030   -5.6450 C.2    39  PHE39       0.2620
     24  O        -12.8510   13.4460   -6.4480 O.2    39  PHE39      -0.2715
     25  CB       -11.1490   11.2170   -5.8870 C.3    39  PHE39       0.0574
     26  CG       -10.0180   10.2290   -5.8260 C.ar   39  PHE39      -0.0200
     27  CD1       -9.2410    9.9710   -6.9600 C.ar   39  PHE39      -0.0042
     28  CD2       -9.6820    9.6110   -4.6180 C.ar   39  PHE39      -0.0042
     29  CE1       -8.1660    9.0740   -6.8940 C.ar   39  PHE39      -0.0003
     30  CE2       -8.6080    8.7060   -4.5390 C.ar   39  PHE39      -0.0003
     31  CZ        -7.8670    8.4240   -5.6740 C.ar   39  PHE39      -0.0000
     32  N        -11.8810   14.5780   -4.7370 N.am   40  GLY40      -0.1954
     33  CA       -13.0740   15.3870   -4.4530 C.3    40  GLY40       0.1869
     34  C        -13.9000   14.6790   -3.3940 C.2    40  GLY40       0.2309
     35  O        -13.9760   15.1370   -2.2610 O.2    40  GLY40      -0.2863
     36  N        -18.0850   11.7610   -6.0070 N.3    44  ALA44      -0.1245
     37  CA       -17.7210   12.5200   -7.2100 C.3    44  ALA44       0.1562
     38  C        -17.0050   11.6190   -8.2060 C.2    44  ALA44       0.2260
     39  O        -17.2540   11.6600   -9.4260 O.2    44  ALA44      -0.2867
     40  CB       -16.8470   13.7320   -6.8500 C.3    44  ALA44       0.0290
     41  N        -18.3010   10.5500  -11.9590 N.3    48  LYS48      -0.1245
     42  CA       -17.4440   10.7930  -13.1180 C.3    48  LYS48       0.1561
     43  C        -17.2730    9.4940  -13.9460 C.2    48  LYS48       0.2260
     44  O        -17.3680    9.4930  -15.1870 O.2    48  LYS48      -0.2867
     45  CB       -16.0730   11.3480  -12.6580 C.3    48  LYS48       0.0271
     46  CG       -15.0710   11.6520  -13.7950 C.3    48  LYS48       0.0035
     47  CD       -13.7940   12.3400  -13.2580 C.3    48  LYS48       0.0206
     48  CE       -12.6010   12.3320  -14.2760 C.3    48  LYS48       0.1093
     49  NZ       -12.9030   13.1650  -15.5000 N.3    48  LYS48      -0.1314
     50  N        -10.7060    7.2100  -14.4880 N.3   269  PHE269     -0.1227
     51  CA       -11.5930    8.2840  -14.0310 C.3   269  PHE269      0.1736
     52  C        -11.0920    8.9770  -12.7700 C.2   269  PHE269      0.2596
     53  O        -11.6080   10.0400  -12.3870 O.2   269  PHE269     -0.2718
     54  CB       -12.9990    7.7450  -13.8280 C.3   269  PHE269      0.0547
     55  CG       -13.5740    7.1800  -15.0740 C.ar  269  PHE269     -0.0202
     56  CD1      -13.7720    8.0010  -16.1810 C.ar  269  PHE269     -0.0042
     57  CD2      -13.8640    5.8270  -15.1750 C.ar  269  PHE269     -0.0042
     58  CE1      -14.2760    7.4790  -17.3640 C.ar  269  PHE269     -0.0003
     59  CE2      -14.3640    5.3040  -16.3420 C.ar  269  PHE269     -0.0003
     60  CZ       -14.5840    6.1190  -17.4330 C.ar  269  PHE269     -0.0000
     61  N        -10.0670    8.3770  -12.1690 N.am  270  GLY270     -0.1942
     62  CA        -9.3440    8.9580  -11.0220 C.3   270  GLY270      0.2014
     63  C         -7.9080    8.4950  -11.0830 C.2   270  GLY270      0.2638
     64  O         -7.6170    7.4300  -11.6110 O.2   270  GLY270     -0.2714
     65  N         -6.9820    9.2840  -10.5360 N.am  271  PHE271     -0.1973
     66  CA        -5.5860    8.9450  -10.7120 C.3   271  PHE271      0.1639
     67  C         -4.8180    9.6510   -9.5820 C.2   271  PHE271      0.2290
     68  O         -4.7560   10.8870   -9.5280 O.2   271  PHE271     -0.2864
     69  CB        -5.1640    9.4210  -12.1160 C.3   271  PHE271      0.0560
     70  CG        -3.8650    8.8340  -12.6420 C.ar  271  PHE271     -0.0200
     71  CD1       -3.0400    8.0450  -11.8570 C.ar  271  PHE271     -0.0042
     72  CD2       -3.4780    9.0950  -13.9560 C.ar  271  PHE271     -0.0042
     73  CE1       -1.8390    7.5180  -12.3940 C.ar  271  PHE271     -0.0003
     74  CE2       -2.2910    8.5880  -14.4870 C.ar  271  PHE271     -0.0003
     75  CZ        -1.4610    7.7970  -13.6980 C.ar  271  PHE271     -0.0000
     76  N         -0.5790   15.5410   -8.7360 N.3   276  THR276     -0.1203
     77  CA        -1.9260   15.6570   -8.1650 C.3   276  THR276      0.1994
     78  C         -3.0780   15.7830   -9.1720 C.2   276  THR276      0.2617
     79  O         -4.1070   15.1080   -9.0250 O.2   276  THR276     -0.2717
     80  CB        -1.9730   16.7540   -7.0910 C.3   276  THR276      0.1784
     81  OG1       -1.1190   16.3250   -6.0200 O.3   276  THR276     -0.2211
     82  CG2       -3.4560   17.0030   -6.5870 C.3   276  THR276      0.0376
     83  N         -2.8930   16.6120  -10.1970 N.am  277  ASN277     -0.1974
     84  CA        -3.9710   16.8660  -11.1710 C.3   277  ASN277      0.1688
     85  C         -3.7650   16.1730  -12.5330 C.2   277  ASN277      0.2292
     86  O         -4.3180   16.5920  -13.5430 O.2   277  ASN277     -0.2864
     87  CB        -4.2070   18.3810  -11.3670 C.3   277  ASN277      0.1181
     88  CG        -3.0930   19.0200  -12.1800 C.2   277  ASN277      0.2629
     89  OD1       -1.9610   18.5440  -12.1400 O.2   277  ASN277     -0.2716
     90  ND2       -3.4040   20.0670  -12.9380 N.am  277  ASN277     -0.0877
     91  N         -5.0630   13.6090  -13.6960 N.3   279  MET279     -0.1230
     92  CA        -6.3480   13.2330  -14.3290 C.3   279  MET279      0.1702
     93  C         -6.9190   14.3730  -15.1960 C.2   279  MET279      0.2592
     94  O         -7.4380   14.1280  -16.2920 O.2   279  MET279     -0.2718
     95  CB        -7.4210   12.8340  -13.3030 C.3   279  MET279      0.0401
     96  CG        -8.6920   12.2160  -13.9410 C.3   279  MET279      0.0596
     97  SD        -8.4010   10.4950  -14.5310 S.3   279  MET279     -0.1393
     98  CE        -7.9630   10.8080  -16.2620 C.3   279  MET279      0.0692
     99  N         -6.8890   15.6070  -14.6750 N.am  280  ASP280     -0.1974
    100  CA        -7.3760   16.7710  -15.4210 C.3   280  ASP280      0.1709
    101  C         -6.5790   17.0310  -16.7080 C.2   280  ASP280      0.2293
    102  O         -7.1500   17.3440  -17.7510 O.2   280  ASP280     -0.2864
    103  CB        -7.2990   18.0370  -14.5650 C.3   280  ASP280      0.1436
    104  CG        -8.2080   18.0000  -13.3520 C.2   280  ASP280      0.3671
    105  OD1       -9.1860   17.2220  -13.3050 O.co2 280  ASP280     -0.2456
    106  OD2       -7.9270   18.7750  -12.4330 O.co2 280  ASP280     -0.2456
@<TRIPOS>BOND
     1   102   101    2
     2    60    58   ar
     3    60    59   ar
     4    58    56   ar
     5   101   100    1
     6    59    57   ar
     7    94    93    2
     8    98    97    1
     9    56    55   ar
    10    49    48    1
    11   100    99    1
    12   100   103    1
    13    93    99   am
    14    93    92    1
    15    44    43    2
    16    57    55   ar
    17    55    54    1
    18   103   104    1
    19    97    96    1
    20    50    51    1
    21    74    72   ar
    22    74    75   ar
    23    92    91    1
    24    92    95    1
    25    48    47    1
    26    51    54    1
    27    51    52    1
    28    72    70   ar
    29    43    42    1
    30    96    95    1
    31    46    47    1
    32    46    45    1
    33    75    73   ar
    34    86    85    2
    35   104   105   ar
    36   104   106   ar
    37    42    45    1
    38    42    41    1
    39    90    88   am
    40    52    53    2
    41    52    61   am
    42    70    69    1
    43    70    71   ar
    44    85    84    1
    45    73    71   ar
    46    88    89    2
    47    88    87    1
    48    61    62    1
    49    69    66    1
    50    64    63    2
    51    87    84    1
    52    84    83    1
    53    63    62    1
    54    63    65   am
    55    66    65    1
    56    66    67    1
    57    83    78   am
    58    67    68    2
    59    39    38    2
    60    78    79    2
    61    78    77    1
    62    76    77    1
    63    38    37    1
    64    77    80    1
    65    37    40    1
    66    37    36    1
    67    80    82    1
    68    80    81    1
    69    27    29   ar
    70    27    26   ar
    71    29    31   ar
    72    24    23    2
    73    19    20   ar
    74    19    17   ar
    75    20    18   ar
    76    25    26    1
    77    25    22    1
    78    26    28   ar
    79    31    30   ar
    80    22    23    1
    81    22    21    1
    82    23    32   am
    83    17    15   ar
    84    13    12    2
    85    32    33    1
    86    18    16   ar
    87    28    30   ar
    88    33    34    1
    89    21    12   am
    90    12    11    1
    91    15    16   ar
    92    15    14    1
    93    34    35    2
    94    14    11    1
    95    11    10    1
    96     4     3    2
    97    10     3   am
    98     3     2    1
    99     2     1    1
   100     2     5    1
   101     5     6    1
   102     6     7    1
   103     7     8   ar
   104     7     9   ar
