@<TRIPOS>MOLECULE
tmp/3cakB01.pdb
 144 140 0 0 0
SMALL
GASTEIGER

@<TRIPOS>ATOM
      1  N         -7.6900   -2.9470  -21.6370 N.3    21  HIS21      -0.1241
      2  CA        -6.7910   -2.3770  -20.6410 C.3    21  HIS21       0.1621
      3  C         -7.3000   -0.9730  -20.2470 C.2    21  HIS21       0.2264
      4  O         -7.0740    0.0270  -20.9670 O.2    21  HIS21      -0.2867
      5  CB        -5.3480   -2.3070  -21.1740 C.3    21  HIS21       0.0745
      6  CG        -4.3510   -1.7900  -20.1700 C.ar   21  HIS21       0.0817
      7  ND1       -3.1840   -2.4580  -19.8570 N.ar   21  HIS21      -0.2268
      8  CD2       -4.3570   -0.6700  -19.4080 C.ar   21  HIS21       0.1154
      9  CE1       -2.5160   -1.7710  -18.9400 C.ar   21  HIS21       0.1986
     10  NE2       -3.2090   -0.6850  -18.6500 N.ar   21  HIS21      -0.2212
     11  N         -8.9340    1.4640  -16.5220 N.3    23  HIS23      -0.1241
     12  CA        -8.9640    1.5990  -15.0690 C.3    23  HIS23       0.1621
     13  C        -10.1640    2.4430  -14.6820 C.2    23  HIS23       0.2264
     14  O        -10.4120    3.4750  -15.3200 O.2    23  HIS23      -0.2867
     15  CB        -7.7130    2.3490  -14.5810 C.3    23  HIS23       0.0745
     16  CG        -6.4360    1.6530  -14.8950 C.ar   23  HIS23       0.0817
     17  ND1       -5.9440    0.6260  -14.1210 N.ar   23  HIS23      -0.2268
     18  CD2       -5.5550    1.8190  -15.9130 C.ar   23  HIS23       0.1154
     19  CE1       -4.8000    0.2010  -14.6390 C.ar   23  HIS23       0.1986
     20  NE2       -4.5390    0.9170  -15.7190 N.ar   23  HIS23      -0.2212
     21  N         -6.8680    4.7510  -10.9520 N.3    26  GLY26      -0.1210
     22  CA        -5.4690    4.3500  -10.7030 C.3    26  GLY26       0.1956
     23  C         -4.9570    4.9770   -9.4180 C.2    26  GLY26       0.2612
     24  O         -4.7560    6.1990   -9.3430 O.2    26  GLY26      -0.2717
     25  N         -4.7670    4.1460   -8.3940 N.am   27  SER27      -0.1952
     26  CA        -4.4500    4.6340   -7.0500 C.3    27  SER27       0.1924
     27  C         -3.4450    3.6810   -6.3750 C.2    27  SER27       0.2314
     28  O         -2.5650    3.1280   -7.0440 O.2    27  SER27      -0.2863
     29  CB        -5.7600    4.8090   -6.2630 C.3    27  SER27       0.2116
     30  OG        -5.6110    5.4060   -4.9750 O.3    27  SER27      -0.2180
     31  N         -2.5020   -1.0920   -7.3870 N.3    72  ILE72      -0.1245
     32  CA        -3.1090    0.0560   -8.0860 C.3    72  ILE72       0.1561
     33  C         -4.3320    0.5350   -7.2560 C.2    72  ILE72       0.2260
     34  O         -5.0580    1.4470   -7.6450 O.2    72  ILE72      -0.2867
     35  CB        -3.4390   -0.3140   -9.5670 C.3    72  ILE72       0.0252
     36  CG1       -2.1160   -0.4940  -10.3650 C.3    72  ILE72       0.0019
     37  CG2       -4.3690    0.7510  -10.2370 C.3    72  ILE72       0.0019
     38  CD1       -2.2990   -1.1160  -11.7670 C.3    72  ILE72       0.0001
     39  N          1.2880   -4.8010   -9.8700 N.3    97  TRP97      -0.1227
     40  CA         1.8330   -3.7680  -10.7380 C.3    97  TRP97       0.1737
     41  C          3.1790   -3.4180  -10.1390 C.2    97  TRP97       0.2595
     42  O          3.7800   -4.2560   -9.4440 O.2    97  TRP97      -0.2718
     43  CB         0.8740   -2.5870  -10.6920 C.3    97  TRP97       0.0564
     44  CG         1.0880   -1.3720  -11.5410 C.ar   97  TRP97       0.0003
     45  CD1        1.1450   -1.2800  -12.9130 C.ar   97  TRP97       0.0946
     46  CD2        1.1630   -0.0270  -11.0420 C.ar   97  TRP97       0.0152
     47  NE1        1.2700    0.0680  -13.2880 N.ar   97  TRP97      -0.2442
     48  CE2        1.2830    0.8380  -12.1490 C.ar   97  TRP97       0.0810
     49  CE3        1.1500    0.5200   -9.7500 C.ar   97  TRP97       0.0012
     50  CZ2        1.3860    2.2250  -12.0010 C.ar   97  TRP97       0.0191
     51  CZ3        1.2390    1.8770   -9.6030 C.ar   97  TRP97       0.0001
     52  CH2        1.3660    2.7260  -10.7320 C.ar   97  TRP97       0.0015
     53  N          3.6890   -2.2220  -10.3880 N.am   98  PHE98      -0.1976
     54  CA         5.0400   -1.9680   -9.9400 C.3    98  PHE98       0.1639
     55  C          5.1430   -1.1840   -8.6230 C.2    98  PHE98       0.2290
     56  O          6.2010   -0.6480   -8.3150 O.2    98  PHE98      -0.2864
     57  CB         5.9450   -1.4060  -11.0760 C.3    98  PHE98       0.0560
     58  CG         5.4280   -0.1380  -11.7100 C.ar   98  PHE98      -0.0200
     59  CD1        5.5450    1.0810  -11.0480 C.ar   98  PHE98      -0.0042
     60  CD2        4.8720   -0.1600  -12.9760 C.ar   98  PHE98      -0.0042
     61  CE1        5.0860    2.2670  -11.6260 C.ar   98  PHE98      -0.0003
     62  CE2        4.3920    1.0270  -13.5640 C.ar   98  PHE98      -0.0003
     63  CZ         4.5150    2.2350  -12.9000 C.ar   98  PHE98      -0.0000
     64  N          2.2650   -4.8960  -18.0310 N.3   166  HIS166     -0.1241
     65  CA         2.8180   -3.5620  -18.2170 C.3   166  HIS166      0.1621
     66  C          4.2540   -3.7600  -18.7370 C.2   166  HIS166      0.2264
     67  O          5.0200   -4.5560  -18.1820 O.2   166  HIS166     -0.2867
     68  CB         2.8300   -2.8170  -16.8690 C.3   166  HIS166      0.0745
     69  CG         3.5630   -1.5100  -16.9040 C.ar  166  HIS166      0.0817
     70  ND1        2.9110   -0.2940  -16.9460 N.ar  166  HIS166     -0.2268
     71  CD2        4.8920   -1.2250  -16.8660 C.ar  166  HIS166      0.1154
     72  CE1        3.8040    0.6830  -16.9520 C.ar  166  HIS166      0.1986
     73  NE2        5.0130    0.1430  -16.9070 N.ar  166  HIS166     -0.2212
     74  N          1.1070   -2.1010  -23.4370 N.3   195  HIS195     -0.1241
     75  CA         1.7540   -0.8180  -23.7820 C.3   195  HIS195      0.1621
     76  C          2.6810   -0.9500  -25.0110 C.2   195  HIS195      0.2264
     77  O          3.6520   -0.2150  -25.1490 O.2   195  HIS195     -0.2867
     78  CB         2.5390   -0.2610  -22.5830 C.3   195  HIS195      0.0745
     79  CG         1.7020   -0.0460  -21.3590 C.ar  195  HIS195      0.0817
     80  ND1        0.3320    0.1400  -21.4120 N.ar  195  HIS195     -0.2268
     81  CD2        2.0340   -0.0020  -20.0450 C.ar  195  HIS195      0.1154
     82  CE1       -0.1430    0.2900  -20.1870 C.ar  195  HIS195      0.1986
     83  NE2        0.8680    0.2180  -19.3380 N.ar  195  HIS195     -0.2212
     84  N         -2.3510    2.2070  -25.4690 N.3   219  HIS219     -0.1241
     85  CA        -2.0190    3.5630  -25.0390 C.3   219  HIS219      0.1621
     86  C         -2.4050    4.5880  -26.1000 C.2   219  HIS219      0.2264
     87  O         -1.8090    5.6530  -26.1360 O.2   219  HIS219     -0.2867
     88  CB        -0.5030    3.7070  -24.8280 C.3   219  HIS219      0.0745
     89  CG        -0.0500    3.5940  -23.4090 C.ar  219  HIS219      0.0817
     90  ND1        1.2870    3.6210  -23.0630 N.ar  219  HIS219     -0.2268
     91  CD2       -0.7380    3.4350  -22.2510 C.ar  219  HIS219      0.1154
     92  CE1        1.4020    3.4880  -21.7520 C.ar  219  HIS219      0.1986
     93  NE2        0.1860    3.3890  -21.2320 N.ar  219  HIS219     -0.2212
     94  N         -2.7820    8.2970  -25.3930 N.3   222  HIS222     -0.1241
     95  CA        -1.7310    8.8350  -24.5120 C.3   222  HIS222      0.1621
     96  C         -0.7030    9.6430  -25.3640 C.2   222  HIS222      0.2264
     97  O          0.1340    9.0690  -26.0710 O.2   222  HIS222     -0.2867
     98  CB        -0.9920    7.7030  -23.7770 C.3   222  HIS222      0.0745
     99  CG        -1.7310    7.1140  -22.6200 C.ar  222  HIS222      0.0817
    100  ND1       -3.0550    6.7130  -22.6950 N.ar  222  HIS222     -0.2268
    101  CD2       -1.3120    6.8040  -21.3690 C.ar  222  HIS222      0.1154
    102  CE1       -3.4290    6.2370  -21.5200 C.ar  222  HIS222      0.1986
    103  NE2       -2.3890    6.2720  -20.7030 N.ar  222  HIS222     -0.2212
    104  N          5.0560   10.8450  -18.7400 N.3   236  LEU236     -0.1245
    105  CA         4.0760    9.7590  -18.6050 C.3   236  LEU236      0.1561
    106  C          3.4750    9.3250  -19.9490 C.2   236  LEU236      0.2260
    107  O          3.2630    8.1400  -20.1950 O.2   236  LEU236     -0.2867
    108  CB         2.9510   10.1920  -17.6610 C.3   236  LEU236      0.0270
    109  CG         1.6600    9.3460  -17.6380 C.3   236  LEU236      0.0019
    110  CD1        1.9680    8.0050  -16.9910 C.3   236  LEU236      0.0001
    111  CD2        0.5610   10.0870  -16.8830 C.3   236  LEU236      0.0001
    112  N         -6.3040    2.6750  -22.1830 N.3   266  ASP266     -0.1239
    113  CA        -5.6830    2.7950  -20.8660 C.3   266  ASP266      0.1674
    114  C         -6.1200    4.1090  -20.2160 C.2   266  ASP266      0.2266
    115  O         -5.3000    4.9180  -19.7610 O.2   266  ASP266     -0.2867
    116  CB        -4.1550    2.6630  -20.9450 C.3   266  ASP266      0.1410
    117  CG        -3.4940    2.5990  -19.5650 C.2   266  ASP266      0.3668
    118  OD1       -4.1750    2.2180  -18.5730 O.co2 266  ASP266     -0.2456
    119  OD2       -2.2800    2.8800  -19.4730 O.co2 266  ASP266     -0.2456
    120  N         -8.6760    6.2460  -17.3110 N.3   268  LEU268     -0.1245
    121  CA        -9.0680    6.1410  -15.9110 C.3   268  LEU268      0.1561
    122  C        -10.0100    7.2890  -15.6240 C.2   268  LEU268      0.2260
    123  O        -10.0840    8.2520  -16.4030 O.2   268  LEU268     -0.2867
    124  CB        -7.8680    6.2870  -14.9630 C.3   268  LEU268      0.0270
    125  CG        -6.4430    5.8920  -15.3450 C.3   268  LEU268      0.0019
    126  CD1       -5.6760    6.8650  -16.2990 C.3   268  LEU268      0.0001
    127  CD2       -5.6360    5.6390  -14.0720 C.3   268  LEU268      0.0001
    128  N         -6.9820    9.2840  -10.5360 N.3   271  PHE271     -0.1241
    129  CA        -5.5860    8.9450  -10.7120 C.3   271  PHE271      0.1605
    130  C         -4.8180    9.6510   -9.5820 C.2   271  PHE271      0.2264
    131  O         -4.7560   10.8870   -9.5280 O.2   271  PHE271     -0.2867
    132  CB        -5.1640    9.4210  -12.1160 C.3   271  PHE271      0.0534
    133  CG        -3.8650    8.8340  -12.6420 C.ar  271  PHE271     -0.0203
    134  CD1       -3.0400    8.0450  -11.8570 C.ar  271  PHE271     -0.0042
    135  CD2       -3.4780    9.0950  -13.9560 C.ar  271  PHE271     -0.0042
    136  CE1       -1.8390    7.5180  -12.3940 C.ar  271  PHE271     -0.0003
    137  CE2       -2.2910    8.5880  -14.4870 C.ar  271  PHE271     -0.0003
    138  CZ        -1.4610    7.7970  -13.6980 C.ar  271  PHE271     -0.0000
    139  N         -1.6090    8.2180   -8.1080 N.3   273  SER273     -0.1217
    140  CA        -0.2420    7.6920   -7.9590 C.3   273  SER273      0.1889
    141  C          0.7910    8.5320   -8.7320 C.2   273  SER273      0.2288
    142  O          1.9600    8.1450   -8.8320 O.2   273  SER273     -0.2866
    143  CB        -0.1910    6.2230   -8.4000 C.3   273  SER273      0.2089
    144  OG        -0.7570    6.0700   -9.6930 O.3   273  SER273     -0.2183
@<TRIPOS>BOND
     1    87    86    2
     2    86    85    1
     3    97    96    2
     4    84    85    1
     5    94    95    1
     6    96    95    1
     7    77    76    2
     8    85    88    1
     9    76    75    1
    10    88    89    1
    11    95    98    1
    12    75    74    1
    13    75    78    1
    14    98    99    1
    15    89    90   ar
    16    89    91   ar
    17    90    92   ar
    18   100    99   ar
    19   100   102   ar
    20    99   101   ar
    21    78    79    1
    22    91    93   ar
    23   112   113    1
    24    92    93   ar
    25     1     2    1
    26   102   103   ar
    27    80    79   ar
    28    80    82   ar
    29   101   103   ar
    30    79    81   ar
    31     5     2    1
    32     5     6    1
    33     4     3    2
    34   116   113    1
    35   116   117    1
    36   113   114    1
    37     2     3    1
    38   114   115    2
    39   107   106    2
    40    82    83   ar
    41     6     7   ar
    42     6     8   ar
    43    81    83   ar
    44   106   105    1
    45     7     9   ar
    46   117   119   ar
    47   117   118   ar
    48     8    10   ar
    49     9    10   ar
    50   104   105    1
    51    66    65    1
    52    66    67    2
    53   105   108    1
    54    65    64    1
    55    65    68    1
    56   108   109    1
    57   109   110    1
    58   109   111    1
    59   120   121    1
    60    72    70   ar
    61    72    73   ar
    62    70    69   ar
    63    73    71   ar
    64    69    68    1
    65    69    71   ar
    66    11    12    1
    67   123   122    2
    68   126   125    1
    69    18    20   ar
    70    18    16   ar
    71   121   122    1
    72   121   124    1
    73    20    19   ar
    74   125   124    1
    75   125   127    1
    76    14    13    2
    77    12    13    1
    78    12    15    1
    79    16    15    1
    80    16    17   ar
    81    19    17   ar
    82   137   135   ar
    83   137   138   ar
    84   135   133   ar
    85   138   136   ar
    86    62    60   ar
    87    62    63   ar
    88    47    45   ar
    89    47    48   ar
    90    60    58   ar
    91    45    44   ar
    92    63    61   ar
    93   133   132    1
    94   133   134   ar
    95   136   134   ar
    96    48    50   ar
    97    48    46   ar
    98   132   129    1
    99    50    52   ar
   100    38    36    1
   101    58    57    1
   102    58    59   ar
   103    61    59   ar
   104    44    46   ar
   105    44    43    1
   106    57    54    1
   107    46    49   ar
   108    21    22    1
   109    40    43    1
   110    40    41    1
   111    40    39    1
   112    52    51   ar
   113   129   128    1
   114   129   130    1
   115    22    23    1
   116    53    41   am
   117    53    54    1
   118    36    35    1
   119    37    35    1
   120    41    42    2
   121    54    55    1
   122    49    51   ar
   123   144   143    1
   124   130   131    2
   125    35    32    1
   126    23    24    2
   127    23    25   am
   128   142   141    2
   129   141   140    1
   130    55    56    2
   131   143   140    1
   132    25    26    1
   133   139   140    1
   134    32    31    1
   135    32    33    1
   136    34    33    2
   137    26    27    1
   138    26    29    1
   139    28    27    2
   140    29    30    1
