@<TRIPOS>MOLECULE
tmp/3caoA03.pdb
 191 192 0 0 0
SMALL
GASTEIGER

@<TRIPOS>ATOM
      1  N         -5.9510   76.1380   37.0070 N.3     6  VAL6       -0.1231
      2  CA        -4.9180   76.4180   36.0290 C.3     6  VAL6        0.1678
      3  C         -5.3910   77.5720   35.1580 C.2     6  VAL6        0.2434
      4  O         -6.5870   77.6380   34.8700 O.2     6  VAL6       -0.2733
      5  CB        -4.7060   75.1460   35.1760 C.3     6  VAL6        0.0265
      6  CG1       -3.6960   75.4390   34.0730 C.3     6  VAL6        0.0020
      7  CG2       -4.2600   73.9880   36.0650 C.3     6  VAL6        0.0020
      8  N         -4.5170   78.4740   34.7930 N.am    7  PRO7       -0.2718
      9  CA        -4.7890   79.5600   33.8600 C.3     7  PRO7        0.1535
     10  C         -5.4100   79.0540   32.5640 C.2     7  PRO7        0.2599
     11  O         -5.0040   77.9950   32.0710 O.2     7  PRO7       -0.2715
     12  CB        -3.4370   80.2440   33.5610 C.3     7  PRO7        0.0310
     13  CG        -2.6530   79.8760   34.8040 C.3     7  PRO7        0.0237
     14  CD        -3.1460   78.5500   35.3180 C.3     7  PRO7        0.0939
     15  N         -6.3750   79.7950   32.0310 N.am    8  THR8       -0.1951
     16  CA        -7.1290   79.3260   30.8700 C.3     8  THR8        0.1897
     17  C         -7.2400   80.3990   29.7950 C.2     8  THR8        0.2313
     18  O         -7.6770   80.0820   28.6780 O.2     8  THR8       -0.2863
     19  CB        -8.5500   78.8450   31.2060 C.3     8  THR8        0.1794
     20  OG1       -9.1970   79.8450   32.0320 O.3     8  THR8       -0.2208
     21  CG2       -8.5960   77.5080   31.9020 C.3     8  THR8        0.0378
     22  N         -6.3790   79.5680   26.0760 N.3    11  PHE11      -0.1241
     23  CA        -7.2240   78.7070   25.2700 C.3    11  PHE11       0.1605
     24  C         -8.3070   79.4470   24.4890 C.2    11  PHE11       0.2264
     25  O         -8.9110   78.8360   23.5930 O.2    11  PHE11      -0.2867
     26  CB        -7.8550   77.5970   26.1270 C.3    11  PHE11       0.0534
     27  CG        -6.8200   76.5820   26.5410 C.ar   11  PHE11      -0.0203
     28  CD1       -6.2230   76.6680   27.7920 C.ar   11  PHE11      -0.0042
     29  CD2       -6.4460   75.5580   25.6960 C.ar   11  PHE11      -0.0042
     30  CE1       -5.2640   75.7500   28.1770 C.ar   11  PHE11      -0.0003
     31  CE2       -5.4980   74.6270   26.0850 C.ar   11  PHE11      -0.0003
     32  CZ        -4.8950   74.7150   27.3250 C.ar   11  PHE11      -0.0000
     33  N        -12.0980   80.3690   23.9050 N.3    13  LYS13      -0.1231
     34  CA       -13.3460   79.7540   24.3410 C.3    13  LYS13       0.1693
     35  C        -13.1270   78.3350   24.8470 C.2    13  LYS13       0.2592
     36  O        -12.6970   77.4520   24.0970 O.2    13  LYS13      -0.2718
     37  CB       -14.3990   79.7440   23.2180 C.3    13  LYS13       0.0285
     38  CG       -15.7840   79.3850   23.7500 C.3    13  LYS13       0.0035
     39  CD       -16.6920   78.8700   22.6440 C.3    13  LYS13       0.0206
     40  CE       -18.1170   79.3760   22.8080 C.3    13  LYS13       0.1093
     41  NZ       -18.7580   78.8370   24.0430 N.3    13  LYS13      -0.1314
     42  N        -13.5380   78.0650   26.0850 N.am   14  LEU14      -0.1966
     43  CA       -13.3620   76.7580   26.6900 C.3    14  LEU14       0.1728
     44  C        -14.4800   75.7830   26.3440 C.2    14  LEU14       0.2616
     45  O        -15.6650   76.0950   26.5270 O.2    14  LEU14      -0.2715
     46  CB       -13.2570   76.8550   28.2260 C.3    14  LEU14       0.0311
     47  CG       -12.1560   77.7860   28.7330 C.3    14  LEU14       0.0022
     48  CD1      -12.2190   77.8940   30.2590 C.3    14  LEU14       0.0001
     49  CD2      -10.7790   77.2860   28.3030 C.3    14  LEU14       0.0001
     50  N        -14.1160   74.5240   26.1290 N.am   15  GLU15      -0.1963
     51  CA       -15.0550   73.4140   26.1710 C.3    15  GLU15       0.1733
     52  C        -15.4380   73.0030   27.5850 C.2    15  GLU15       0.2616
     53  O        -16.4890   72.3850   27.7930 O.2    15  GLU15      -0.2715
     54  CB       -14.4550   72.1820   25.4790 C.3    15  GLU15       0.0429
     55  CG       -14.2260   72.3140   23.9870 C.3    15  GLU15       0.1163
     56  CD       -14.1590   70.9390   23.3350 C.2    15  GLU15       0.3649
     57  OE1      -13.5790   70.8010   22.2440 O.co2  15  GLU15      -0.2457
     58  OE2      -14.6940   69.9880   23.9510 O.co2  15  GLU15      -0.2457
     59  N        -14.4350   72.9650   28.4710 N.am   16  ARG16      -0.1964
     60  CA       -14.5530   72.3590   29.7790 C.3    16  ARG16       0.1714
     61  C        -14.3190   73.4390   30.8560 C.2    16  ARG16       0.2458
     62  O        -13.7600   74.4880   30.5610 O.2    16  ARG16      -0.2730
     63  CB       -13.5970   71.1870   29.9880 C.3    16  ARG16       0.0347
     64  CG       -14.0150   69.9200   29.2410 C.3    16  ARG16       0.0492
     65  CD       -14.7900   68.9550   30.1280 C.3    16  ARG16       0.2205
     66  NE       -15.2690   67.7940   29.3340 N.pl3  16  ARG16      -0.0865
     67  CZ       -15.1210   67.8590   28.0100 C.cat  16  ARG16       0.5346
     68  NH1      -14.5370   68.9440   27.5280 N.pl3  16  ARG16       0.1354
     69  NH2      -15.4630   66.8860   27.1830 N.pl3  16  ARG16       0.1354
     70  N        -14.8320   73.1690   32.0190 N.am   17  PRO17      -0.2716
     71  CA       -14.5360   73.9280   33.2370 C.3    17  PRO17       0.1536
     72  C        -13.0350   74.0880   33.4150 C.2    17  PRO17       0.2598
     73  O        -12.2760   73.2090   33.0030 O.2    17  PRO17      -0.2715
     74  CB       -15.1170   73.1250   34.3970 C.3    17  PRO17       0.0310
     75  CG       -16.2540   72.4020   33.7000 C.3    17  PRO17       0.0237
     76  CD       -15.7320   72.0460   32.3170 C.3    17  PRO17       0.0939
     77  N        -12.6070   75.2030   34.0250 N.am   18  ALA18      -0.1964
     78  CA       -11.1800   75.3010   34.3720 C.3    18  ALA18       0.1728
     79  C        -10.7700   74.1540   35.2760 C.2    18  ALA18       0.2616
     80  O        -11.4560   73.7420   36.2050 O.2    18  ALA18      -0.2715
     81  CB       -10.9140   76.6420   35.0640 C.3    18  ALA18       0.0334
     82  N         -9.5600   73.6100   35.0740 N.am   19  ALA19      -0.1977
     83  CA        -9.0430   72.5300   35.8940 C.3    19  ALA19       0.1597
     84  C         -8.7500   73.0140   37.3160 C.2    19  ALA19       0.2287
     85  O         -7.9970   73.9850   37.4850 O.2    19  ALA19      -0.2864
     86  CB        -7.7440   71.9740   35.2930 C.3    19  ALA19       0.0319
     87  N         -2.9770   72.0670   25.3030 N.3    74  GLN74      -0.1245
     88  CA        -3.8460   71.1090   25.9670 C.3    74  GLN74       0.1566
     89  C         -3.0770   69.8350   26.2850 C.2    74  GLN74       0.2260
     90  O         -3.1140   69.2190   27.3440 O.2    74  GLN74      -0.2867
     91  CB        -5.0990   70.8110   25.1170 C.3    74  GLN74       0.0367
     92  CG        -5.9240   69.6600   25.6780 C.3    74  GLN74       0.0905
     93  CD        -7.1510   69.3760   24.8050 C.2    74  GLN74       0.2608
     94  OE1       -7.6180   70.2570   24.1020 O.2    74  GLN74      -0.2717
     95  NE2       -7.7200   68.2010   24.9860 N.am   74  GLN74      -0.0878
     96  N         -0.5550   70.1220   29.1270 N.3    77  TYR77      -0.1227
     97  CA        -1.1620   69.9520   30.4450 C.3    77  TYR77       0.1736
     98  C         -1.5870   68.5310   30.7380 C.2    77  TYR77       0.2595
     99  O         -1.4600   67.9970   31.8240 O.2    77  TYR77      -0.2718
    100  CB        -2.3410   70.9170   30.6030 C.3    77  TYR77       0.0548
    101  CG        -1.8820   72.3190   30.9740 C.ar   77  TYR77      -0.0200
    102  CD1       -1.9700   73.3860   30.1090 C.ar   77  TYR77      -0.0009
    103  CD2       -1.3790   72.4990   32.2630 C.ar   77  TYR77      -0.0009
    104  CE1       -1.5910   74.6700   30.5310 C.ar   77  TYR77       0.0417
    105  CE2       -1.0540   73.7760   32.6980 C.ar   77  TYR77       0.0417
    106  CZ        -1.1560   74.8240   31.8260 C.ar   77  TYR77       0.1957
    107  OH        -0.8340   76.0860   32.3150 O.3    77  TYR77      -0.2866
    108  N         -2.2770   67.8800   29.7490 N.am   78  HIS78      -0.1975
    109  CA        -2.6860   66.5070   30.0130 C.3    78  HIS78       0.1656
    110  C         -1.5170   65.5930   30.2860 C.2    78  HIS78       0.2291
    111  O         -1.5530   64.8230   31.2450 O.2    78  HIS78      -0.2864
    112  CB        -3.5770   65.9530   28.8750 C.3    78  HIS78       0.0771
    113  CG        -4.9450   66.5610   28.8780 C.ar   78  HIS78       0.0820
    114  ND1       -5.7330   66.6300   27.7410 N.ar   78  HIS78      -0.2267
    115  CD2       -5.6610   67.1480   29.8810 C.ar   78  HIS78       0.1154
    116  CE1       -6.8890   67.2170   28.0580 C.ar   78  HIS78       0.1986
    117  NE2       -6.8800   67.4990   29.3610 N.ar   78  HIS78      -0.2212
    118  N          0.0120   66.7790   33.9040 N.3    81  CYS81      -0.1221
    119  CA        -0.8950   66.6450   35.0340 C.3    81  CYS81       0.1808
    120  C         -1.5060   65.2400   35.1300 C.2    81  CYS81       0.2601
    121  O         -1.3280   64.5580   36.1220 O.2    81  CYS81      -0.2717
    122  CB        -2.0340   67.6730   34.9580 C.3    81  CYS81       0.0970
    123  SG        -1.5500   69.4060   34.7450 S.3    81  CYS81      -0.0800
    124  N         -2.2430   64.8960   34.0780 N.am   82  TRP82      -0.1976
    125  CA        -2.8650   63.5580   34.0540 C.3    82  TRP82       0.1640
    126  C         -1.8470   62.4430   33.8900 C.2    82  TRP82       0.2290
    127  O         -1.9070   61.4520   34.6410 O.2    82  TRP82      -0.2864
    128  CB        -3.9020   63.5850   32.9450 C.3    82  TRP82       0.0576
    129  CG        -4.6770   62.3020   32.7660 C.ar   82  TRP82       0.0006
    130  CD1       -4.7860   61.2360   33.6100 C.ar   82  TRP82       0.0946
    131  CD2       -5.6590   62.1350   31.7350 C.ar   82  TRP82       0.0152
    132  NE1       -5.7340   60.3620   33.1150 N.ar   82  TRP82      -0.2442
    133  CE2       -6.2120   60.8440   31.9290 C.ar   82  TRP82       0.0810
    134  CE3       -6.0170   62.8710   30.6100 C.ar   82  TRP82       0.0012
    135  CZ2       -7.2590   60.3740   31.1250 C.ar   82  TRP82       0.0191
    136  CZ3       -6.9940   62.3630   29.7600 C.ar   82  TRP82       0.0001
    137  CH2       -7.5390   61.0910   29.9890 C.ar   82  TRP82       0.0015
    138  N         -0.5420   61.7010   37.4630 N.3    85  HIS85      -0.1241
    139  CA        -1.5530   61.0250   38.2900 C.3    85  HIS85       0.1621
    140  C         -1.6830   59.5530   37.9000 C.2    85  HIS85       0.2264
    141  O         -1.7630   58.6850   38.7790 O.2    85  HIS85      -0.2867
    142  CB        -2.9040   61.7040   38.1050 C.3    85  HIS85       0.0745
    143  CG        -2.8940   63.1230   38.6070 C.ar   85  HIS85       0.0817
    144  ND1       -3.9720   63.9450   38.3790 N.ar   85  HIS85      -0.2268
    145  CD2       -1.9820   63.8060   39.3330 C.ar   85  HIS85       0.1154
    146  CE1       -3.7220   65.1190   38.9670 C.ar   85  HIS85       0.1986
    147  NE2       -2.5630   65.0340   39.5610 N.ar   85  HIS85      -0.2212
    148  N         -6.6140   62.8600   40.3230 N.3    92  PRO92      -0.2102
    149  CA        -7.7430   62.7340   39.4340 C.3    92  PRO92       0.1504
    150  C         -7.3420   62.3250   38.0250 C.2    92  PRO92       0.2576
    151  O         -6.3850   62.8300   37.4320 O.2    92  PRO92      -0.2718
    152  CB        -8.4720   64.0930   39.3790 C.3    92  PRO92       0.0282
    153  CG        -7.4210   65.0140   39.9750 C.3    92  PRO92       0.0208
    154  CD        -6.5620   64.2110   40.9240 C.3    92  PRO92       0.0893
    155  N         -8.0040   61.2630   37.5350 N.am   93  VAL93      -0.1966
    156  CA        -7.6840   60.7900   36.1830 C.3    93  VAL93       0.1727
    157  C         -8.9300   60.7460   35.3100 C.2    93  VAL93       0.2616
    158  O         -8.8390   60.5210   34.1030 O.2    93  VAL93      -0.2715
    159  CB        -7.0200   59.3970   36.2100 C.3    93  VAL93       0.0290
    160  CG1       -5.6570   59.4300   36.8920 C.3    93  VAL93       0.0023
    161  CG2       -7.9100   58.3830   36.9250 C.3    93  VAL93       0.0023
    162  N        -10.0890   61.0980   35.8840 N.am   94  MET94      -0.1963
    163  CA       -11.2870   61.2730   35.0580 C.3    94  MET94       0.1736
    164  C        -11.4860   62.7250   34.6390 C.2    94  MET94       0.2616
    165  O        -11.3080   63.6110   35.4910 O.2    94  MET94      -0.2715
    166  CB       -12.5100   60.8330   35.8760 C.3    94  MET94       0.0427
    167  CG       -12.4140   59.3980   36.3800 C.3    94  MET94       0.0599
    168  SD       -13.3870   58.2940   35.3360 S.3    94  MET94      -0.1393
    169  CE       -15.0410   58.8950   35.6740 C.3    94  MET94       0.0692
    170  N        -12.0660   62.9650   33.4800 N.am   95  CYS95      -0.1968
    171  CA       -12.1550   64.2990   32.9170 C.3    95  CYS95       0.1712
    172  C        -12.8390   65.2640   33.9020 C.2    95  CYS95       0.2296
    173  O        -12.3690   66.3850   34.1020 O.2    95  CYS95      -0.2864
    174  CB       -12.9150   64.4290   31.6050 C.3    95  CYS95       0.0983
    175  SG       -12.6570   63.0930   30.4150 S.3    95  CYS95      -0.0798
    176  N        -11.0260   66.7090   37.1800 N.3    98  CYS98      -0.1221
    177  CA       -10.1650   67.8880   37.0470 C.3    98  CYS98       0.1808
    178  C        -11.0220   69.0590   36.6020 C.2    98  CYS98       0.2601
    179  O        -10.9850   70.1530   37.1730 O.2    98  CYS98      -0.2717
    180  CB        -9.0790   67.6320   35.9800 C.3    98  CYS98       0.0970
    181  SG        -7.7830   66.5960   36.6870 S.3    98  CYS98      -0.0800
    182  N        -11.7930   68.8210   35.5390 N.am   99  HIS99      -0.1975
    183  CA       -12.6310   69.8600   34.9600 C.3    99  HIS99       0.1656
    184  C        -13.9780   69.8320   35.6820 C.2    99  HIS99       0.2291
    185  O        -14.9870   69.4520   35.0940 O.2    99  HIS99      -0.2864
    186  CB       -12.8240   69.6770   33.4540 C.3    99  HIS99       0.0771
    187  CG       -11.5440   69.7000   32.6640 C.ar   99  HIS99       0.0820
    188  ND1      -10.9220   70.8750   32.3440 N.ar   99  HIS99      -0.2267
    189  CD2      -10.8120   68.6870   32.1270 C.ar   99  HIS99       0.1154
    190  CE1       -9.8740   70.6160   31.5640 C.ar   99  HIS99       0.1986
    191  NE2       -9.7930   69.3050   31.4380 N.ar   99  HIS99      -0.2212
@<TRIPOS>BOND
     1    57    56   ar
     2    39    40    1
     3    39    38    1
     4    40    41    1
     5    37    38    1
     6    37    34    1
     7    56    58   ar
     8    56    55    1
     9    25    24    2
    10    33    34    1
    11    55    54    1
    12    36    35    2
    13    94    93    2
    14    34    35    1
    15    24    23    1
    16    93    95   am
    17    93    92    1
    18    35    42   am
    19    91    92    1
    20    91    88    1
    21    23    22    1
    22    23    26    1
    23    87    88    1
    24    54    51    1
    25    29    31   ar
    26    29    27   ar
    27    88    89    1
    28    42    43    1
    29    31    32   ar
    30    26    27    1
    31    50    51    1
    32    50    44   am
    33    51    52    1
    34    89    90    2
    35    44    45    2
    36    44    43    1
    37    27    28   ar
    38    43    46    1
    39    69    67    1
    40    32    30   ar
    41    68    67    1
    42    52    53    2
    43    52    59   am
    44   114   116   ar
    45   114   113   ar
    46    28    30   ar
    47    67    66    2
    48   116   117   ar
    49    46    47    1
    50    49    47    1
    51    59    60    1
    52    18    17    2
    53    47    48    1
    54   112   113    1
    55   112   109    1
    56   113   115   ar
    57    96    97    1
    58    64    63    1
    59    64    65    1
    60    66    65    1
    61   117   115   ar
    62   108   109    1
    63   108    98   am
    64   136   137   ar
    65   136   134   ar
    66    60    63    1
    67    60    61    1
    68    17    16    1
    69   137   135   ar
    70   109   110    1
    71   102   104   ar
    72   102   101   ar
    73   110   111    2
    74   175   174    1
    75    97   100    1
    76    97    98    1
    77   104   106   ar
    78    62    61    2
    79   100   101    1
    80   134   131   ar
    81    98    99    2
    82    61    70   am
    83    16    19    1
    84    16    15    1
    85   101   103   ar
    86   135   133   ar
    87    19    21    1
    88    19    20    1
    89   191   190   ar
    90   191   189   ar
    91   190   188   ar
    92   174   171    1
    93   131   133   ar
    94   131   129   ar
    95   106   107    1
    96   106   105   ar
    97   133   132   ar
    98    70    76    1
    99    70    71    1
   100    15    10   am
   101    11    10    2
   102   189   187   ar
   103   103   105   ar
   104    76    75    1
   105   188   187   ar
   106    10     9    1
   107   187   186    1
   108   129   128    1
   109   129   130   ar
   110   171   170    1
   111   171   172    1
   112   128   125    1
   113    73    72    2
   114   132   130   ar
   115    71    72    1
   116    71    74    1
   117    72    77   am
   118   186   183    1
   119   170   164   am
   120    12     9    1
   121    12    13    1
   122    75    74    1
   123     9     8    1
   124   126   125    1
   125   126   127    2
   126   172   173    2
   127   118   119    1
   128    77    78    1
   129   125   124    1
   130     6     5    1
   131   124   120   am
   132   158   157    2
   133    78    81    1
   134    78    79    1
   135   164   163    1
   136   164   165    2
   137   123   122    1
   138     8     3   am
   139     8    14    1
   140    13    14    1
   141     4     3    2
   142   122   119    1
   143   183   182    1
   144   183   184    1
   145   119   120    1
   146   163   166    1
   147   163   162    1
   148    82    79   am
   149    82    83    1
   150   185   184    2
   151   120   121    2
   152     3     2    1
   153     5     2    1
   154     5     7    1
   155    79    80    2
   156    86    83    1
   157   157   162   am
   158   157   156    1
   159   168   169    1
   160   168   167    1
   161   182   178   am
   162   166   167    1
   163    83    84    1
   164   180   181    1
   165   180   177    1
   166     2     1    1
   167   156   159    1
   168   156   155    1
   169   159   160    1
   170   159   161    1
   171   178   177    1
   172   178   179    2
   173   177   176    1
   174    84    85    2
   175   151   150    2
   176   138   139    1
   177   155   150   am
   178   140   139    1
   179   140   141    2
   180   150   149    1
   181   142   139    1
   182   142   143    1
   183   144   143   ar
   184   144   146   ar
   185   143   145   ar
   186   146   147   ar
   187   145   147   ar
   188   152   149    1
   189   152   153    1
   190   149   148    1
   191   153   154    1
   192   148   154    1
