@<TRIPOS>MOLECULE
tmp/3caoA02.pdb
 177 170 0 0 0
SMALL
GASTEIGER

@<TRIPOS>ATOM
      1  N         -5.9510   76.1380   37.0070 N.3     6  VAL6       -0.1245
      2  CA        -4.9180   76.4180   36.0290 C.3     6  VAL6        0.1561
      3  C         -5.3910   77.5720   35.1580 C.2     6  VAL6        0.2260
      4  O         -6.5870   77.6380   34.8700 O.2     6  VAL6       -0.2867
      5  CB        -4.7060   75.1460   35.1760 C.3     6  VAL6        0.0252
      6  CG1       -3.6960   75.4390   34.0730 C.3     6  VAL6        0.0019
      7  CG2       -4.2600   73.9880   36.0650 C.3     6  VAL6        0.0019
      8  N         -9.5600   73.6100   35.0740 N.3    19  ALA19      -0.1231
      9  CA        -9.0430   72.5300   35.8940 C.3    19  ALA19       0.1694
     10  C         -8.7500   73.0140   37.3160 C.2    19  ALA19       0.2592
     11  O         -7.9970   73.9850   37.4850 O.2    19  ALA19      -0.2718
     12  CB        -7.7440   71.9740   35.2930 C.3    19  ALA19       0.0304
     13  N         -9.2570   72.2980   38.3050 N.am   20  VAL20      -0.1966
     14  CA        -8.9250   72.5880   39.7090 C.3    20  VAL20       0.1727
     15  C         -7.4510   72.4040   40.0000 C.2    20  VAL20       0.2616
     16  O         -6.8460   71.4120   39.5970 O.2    20  VAL20      -0.2715
     17  CB        -9.7600   71.6520   40.6130 C.3    20  VAL20       0.0290
     18  CG1       -9.3530   71.7450   42.0710 C.3    20  VAL20       0.0023
     19  CG2      -11.2460   71.9740   40.4530 C.3    20  VAL20       0.0023
     20  N         -6.8350   73.3770   40.6780 N.am   21  PHE21      -0.1960
     21  CA        -5.3980   73.3380   40.9190 C.3    21  PHE21       0.1771
     22  C         -5.0040   74.3900   41.9520 C.2    21  PHE21       0.2619
     23  O         -4.7530   75.5200   41.5330 O.2    21  PHE21      -0.2715
     24  CB        -4.6060   73.5680   39.6180 C.3    21  PHE21       0.0574
     25  CG        -3.1200   73.3220   39.7430 C.ar   21  PHE21      -0.0200
     26  CD1       -2.6220   72.1020   40.1640 C.ar   21  PHE21      -0.0042
     27  CD2       -2.2230   74.3620   39.5210 C.ar   21  PHE21      -0.0042
     28  CE1       -1.2610   71.8980   40.2960 C.ar   21  PHE21      -0.0003
     29  CE2       -0.8690   74.1660   39.6830 C.ar   21  PHE21      -0.0003
     30  CZ        -0.3640   72.9160   40.0110 C.ar   21  PHE21      -0.0000
     31  N         -5.1680   74.0580   43.2170 N.am   22  ASN22      -0.1972
     32  CA        -4.6500   75.0110   44.2270 C.3    22  ASN22       0.1688
     33  C         -3.1570   74.7390   44.2930 C.2    22  ASN22       0.2292
     34  O         -2.7660   73.8860   45.0640 O.2    22  ASN22      -0.2864
     35  CB        -5.3920   74.7700   45.5360 C.3    22  ASN22       0.1181
     36  CG        -5.0040   75.8050   46.5960 C.2    22  ASN22       0.2629
     37  OD1       -3.8240   76.1040   46.7010 O.2    22  ASN22      -0.2716
     38  ND2       -6.0110   76.4530   47.1730 N.am   22  ASN22      -0.0877
     39  N         -1.1880   74.1760   47.6790 N.3    25  GLU25      -0.1231
     40  CA        -1.7140   73.0470   48.4640 C.3    25  GLU25       0.1699
     41  C         -1.5530   71.7110   47.7410 C.2    25  GLU25       0.2592
     42  O         -1.0970   70.7200   48.3270 O.2    25  GLU25      -0.2718
     43  CB        -3.1820   73.2870   48.7990 C.3    25  GLU25       0.0402
     44  CG        -3.3510   74.5130   49.7000 C.3    25  GLU25       0.1161
     45  CD        -2.5760   74.3250   50.9920 C.2    25  GLU25       0.3649
     46  OE1       -2.7340   73.2210   51.5660 O.co2  25  GLU25      -0.2457
     47  OE2       -1.5740   75.0480   51.2130 O.co2  25  GLU25      -0.2457
     48  N         -1.7340   71.7430   46.4310 N.am   26  HIS26      -0.1976
     49  CA        -1.5220   70.5560   45.5940 C.3    26  HIS26       0.1656
     50  C         -0.0990   70.0430   45.7810 C.2    26  HIS26       0.2291
     51  O          0.1350   68.8460   45.9520 O.2    26  HIS26      -0.2864
     52  CB        -1.7470   70.9260   44.1170 C.3    26  HIS26       0.0771
     53  CG        -1.3210   69.8160   43.1850 C.ar   26  HIS26       0.0820
     54  ND1       -0.0380   69.6180   42.7500 N.ar   26  HIS26      -0.2267
     55  CD2       -2.0800   68.7900   42.7260 C.ar   26  HIS26       0.1154
     56  CE1       -0.0410   68.5750   41.9130 C.ar   26  HIS26       0.1986
     57  NE2       -1.2350   68.0310   41.9420 N.ar   26  HIS26      -0.2212
     58  N          0.6210   68.4230   49.1150 N.3    29  LYS29      -0.1231
     59  CA        -0.0610   67.1510   49.3210 C.3    29  LYS29       0.1693
     60  C          0.5270   66.0580   48.4290 C.2    29  LYS29       0.2591
     61  O          0.8190   64.9500   48.8870 O.2    29  LYS29      -0.2718
     62  CB        -1.5490   67.2690   49.0280 C.3    29  LYS29       0.0285
     63  CG        -2.3470   68.0320   50.0810 C.3    29  LYS29       0.0035
     64  CD        -3.8140   68.0490   49.6790 C.3    29  LYS29       0.0206
     65  CE        -4.7270   68.0880   50.8940 C.3    29  LYS29       0.1093
     66  NZ        -6.1470   67.8710   50.4940 N.3    29  LYS29      -0.1314
     67  N          0.9030   66.4290   47.2070 N.am   30  ALA30      -0.1980
     68  CA         1.5710   65.5040   46.3020 C.3    30  ALA30       0.1597
     69  C          3.0250   65.2380   46.6300 C.2    30  ALA30       0.2287
     70  O          3.6530   64.3320   46.0530 O.2    30  ALA30      -0.2864
     71  CB         1.4270   66.0860   44.8820 C.3    30  ALA30       0.0319
     72  N          5.6690   67.1870   46.0490 N.3    32  ILE32      -0.1245
     73  CA         6.5480   67.6210   44.9680 C.3    32  ILE32       0.1561
     74  C          7.4550   68.7320   45.5020 C.2    32  ILE32       0.2260
     75  O          6.9890   69.8440   45.7150 O.2    32  ILE32      -0.2867
     76  CB         5.7570   68.0900   43.7360 C.3    32  ILE32       0.0252
     77  CG1        4.8490   66.9650   43.2220 C.3    32  ILE32       0.0019
     78  CG2        6.7150   68.5460   42.6420 C.3    32  ILE32       0.0019
     79  CD1        3.7570   67.4560   42.2900 C.3    32  ILE32       0.0001
     80  N          9.8240   69.7770   38.1970 N.3    37  ALA37      -0.1231
     81  CA         8.8640   68.7270   37.8840 C.3    37  ALA37       0.1694
     82  C          7.8510   69.2290   36.8660 C.2    37  ALA37       0.2592
     83  O          7.3840   68.4680   35.9990 O.2    37  ALA37      -0.2718
     84  CB         8.1670   68.2510   39.1450 C.3    37  ALA37       0.0304
     85  N          7.4320   70.4870   36.9790 N.am   38  CYS38      -0.1970
     86  CA         6.5220   71.0900   36.0410 C.3    38  CYS38       0.1712
     87  C          7.1300   72.2210   35.2430 C.2    38  CYS38       0.2296
     88  O          6.9520   72.3670   34.0390 O.2    38  CYS38      -0.2864
     89  CB         5.2900   71.6360   36.8040 C.3    38  CYS38       0.0983
     90  SG         4.4600   70.2860   37.7100 S.3    38  CYS38      -0.0798
     91  N         -0.5550   70.1220   29.1270 N.3    77  TYR77      -0.1241
     92  CA        -1.1620   69.9520   30.4450 C.3    77  TYR77       0.1605
     93  C         -1.5870   68.5310   30.7380 C.2    77  TYR77       0.2264
     94  O         -1.4600   67.9970   31.8240 O.2    77  TYR77      -0.2867
     95  CB        -2.3410   70.9170   30.6030 C.3    77  TYR77       0.0534
     96  CG        -1.8820   72.3190   30.9740 C.ar   77  TYR77      -0.0201
     97  CD1       -1.9700   73.3860   30.1090 C.ar   77  TYR77      -0.0009
     98  CD2       -1.3790   72.4990   32.2630 C.ar   77  TYR77      -0.0009
     99  CE1       -1.5910   74.6700   30.5310 C.ar   77  TYR77       0.0417
    100  CE2       -1.0540   73.7760   32.6980 C.ar   77  TYR77       0.0417
    101  CZ        -1.1560   74.8240   31.8260 C.ar   77  TYR77       0.1957
    102  OH        -0.8340   76.0860   32.3150 O.3    77  TYR77      -0.2866
    103  N          1.4570   66.3750   31.4410 N.3    80  GLN80      -0.1231
    104  CA         2.1030   66.6720   32.7100 C.3    80  GLN80       0.1698
    105  C          1.2260   66.2410   33.8900 C.2    80  GLN80       0.2592
    106  O          1.6910   65.5560   34.7940 O.2    80  GLN80      -0.2718
    107  CB         2.5330   68.1340   32.8320 C.3    80  GLN80       0.0381
    108  CG         3.7070   68.2540   33.8210 C.3    80  GLN80       0.0905
    109  CD         4.2740   69.6660   33.7820 C.2    80  GLN80       0.2608
    110  OE1        5.2620   69.8830   33.0720 O.2    80  GLN80      -0.2717
    111  NE2        3.5060   70.6260   34.2720 N.am   80  GLN80      -0.0878
    112  N          0.0120   66.7790   33.9040 N.am   81  CYS81      -0.1970
    113  CA        -0.8950   66.6450   35.0340 C.3    81  CYS81       0.1712
    114  C         -1.5060   65.2400   35.1300 C.2    81  CYS81       0.2296
    115  O         -1.3280   64.5580   36.1220 O.2    81  CYS81      -0.2864
    116  CB        -2.0340   67.6730   34.9580 C.3    81  CYS81       0.0983
    117  SG        -1.5500   69.4060   34.7450 S.3    81  CYS81      -0.0798
    118  N          1.2220   62.4240   35.3660 N.3    84  CYS84      -0.1221
    119  CA         1.7470   62.0530   36.6740 C.3    84  CYS84       0.1808
    120  C          0.7250   61.2830   37.5060 C.2    84  CYS84       0.2601
    121  O          1.0750   60.3240   38.1860 O.2    84  CYS84      -0.2717
    122  CB         2.2110   63.2930   37.4770 C.3    84  CYS84       0.0970
    123  SG         2.7750   62.8000   39.1280 S.3    84  CYS84      -0.0800
    124  N         -0.5420   61.7010   37.4630 N.am   85  HIS85      -0.1975
    125  CA        -1.5530   61.0250   38.2900 C.3    85  HIS85       0.1656
    126  C         -1.6830   59.5530   37.9000 C.2    85  HIS85       0.2291
    127  O         -1.7630   58.6850   38.7790 O.2    85  HIS85      -0.2864
    128  CB        -2.9040   61.7040   38.1050 C.3    85  HIS85       0.0771
    129  CG        -2.8940   63.1230   38.6070 C.ar   85  HIS85       0.0820
    130  ND1       -3.9720   63.9450   38.3790 N.ar   85  HIS85      -0.2267
    131  CD2       -1.9820   63.8060   39.3330 C.ar   85  HIS85       0.1154
    132  CE1       -3.7220   65.1190   38.9670 C.ar   85  HIS85       0.1986
    133  NE2       -2.5630   65.0340   39.5610 N.ar   85  HIS85      -0.2212
    134  N          1.6360   57.6490   39.1450 N.3    88  GLN88      -0.1245
    135  CA         1.7260   57.4470   40.5770 C.3    88  GLN88       0.1566
    136  C          0.4750   56.7770   41.1230 C.2    88  GLN88       0.2260
    137  O          0.3980   56.4730   42.3220 O.2    88  GLN88      -0.2867
    138  CB         1.9780   58.7970   41.2840 C.3    88  GLN88       0.0367
    139  CG         3.3410   59.3610   40.9030 C.3    88  GLN88       0.0905
    140  CD         3.7800   60.5820   41.6880 C.2    88  GLN88       0.2608
    141  OE1        3.1640   60.9990   42.6610 O.2    88  GLN88      -0.2717
    142  NE2        5.0150   61.0060   41.4380 N.am   88  GLN88      -0.0878
    143  N         -2.3370   58.1900   41.8450 N.3    90  LYS90      -0.1231
    144  CA        -2.8790   59.1000   42.8460 C.3    90  LYS90       0.1693
    145  C         -3.3610   60.3500   42.1000 C.2    90  LYS90       0.2593
    146  O         -2.7360   60.7080   41.1000 O.2    90  LYS90      -0.2718
    147  CB        -1.8360   59.5170   43.8780 C.3    90  LYS90       0.0285
    148  CG        -1.3890   58.4310   44.8400 C.3    90  LYS90       0.0035
    149  CD        -1.1130   58.9410   46.2410 C.3    90  LYS90       0.0206
    150  CE        -0.1530   58.0090   46.9700 C.3    90  LYS90       0.1093
    151  NZ         1.1570   57.9080   46.2700 N.3    90  LYS90      -0.1314
    152  N         -4.4240   60.9620   42.5800 N.am   91  GLY91      -0.1943
    153  CA        -4.9600   62.1590   41.9430 C.3    91  GLY91       0.1998
    154  C         -5.8860   61.8520   40.7850 C.2    91  GLY91       0.2480
    155  O         -6.0900   60.6990   40.3800 O.2    91  GLY91      -0.2729
    156  N         -6.6140   62.8600   40.3230 N.am   92  PRO92      -0.2726
    157  CA        -7.7430   62.7340   39.4340 C.3    92  PRO92       0.1402
    158  C         -7.3420   62.3250   38.0250 C.2    92  PRO92       0.2269
    159  O         -6.3850   62.8300   37.4320 O.2    92  PRO92      -0.2865
    160  CB        -8.4720   64.0930   39.3790 C.3    92  PRO92       0.0296
    161  CG        -7.4210   65.0140   39.9750 C.3    92  PRO92       0.0237
    162  CD        -6.5620   64.2110   40.9240 C.3    92  PRO92       0.0939
    163  N        -13.2390   65.1750   37.0570 N.3    97  GLU97      -0.1231
    164  CA       -12.5860   65.2760   38.3420 C.3    97  GLU97       0.1699
    165  C        -11.5130   66.3680   38.3640 C.2    97  GLU97       0.2592
    166  O        -11.1310   66.7950   39.4540 O.2    97  GLU97      -0.2718
    167  CB       -11.8980   63.9400   38.6580 C.3    97  GLU97       0.0402
    168  CG       -12.9160   62.8050   38.4550 C.3    97  GLU97       0.1161
    169  CD       -13.3660   62.4030   39.8540 C.2    97  GLU97       0.3649
    170  OE1      -12.7120   61.4660   40.3620 O.co2  97  GLU97      -0.2457
    171  OE2      -13.9940   63.2920   40.4680 O.co2  97  GLU97      -0.2457
    172  N        -11.0260   66.7090   37.1800 N.am   98  CYS98      -0.1970
    173  CA       -10.1650   67.8880   37.0470 C.3    98  CYS98       0.1712
    174  C        -11.0220   69.0590   36.6020 C.2    98  CYS98       0.2296
    175  O        -10.9850   70.1530   37.1730 O.2    98  CYS98      -0.2864
    176  CB        -9.0790   67.6320   35.9800 C.3    98  CYS98       0.0983
    177  SG        -7.7830   66.5960   36.6870 S.3    98  CYS98      -0.0798
@<TRIPOS>BOND
     1    91    92    1
     2    97    99   ar
     3    97    96   ar
     4    92    95    1
     5    92    93    1
     6    99   101   ar
     7    95    96    1
     8    93    94    2
     9    96    98   ar
    10   103   104    1
    11   101   102    1
    12   101   100   ar
    13    98   100   ar
    14   104   107    1
    15   104   105    1
    16   107   108    1
    17   110   109    2
    18   109   108    1
    19   109   111   am
    20   105   112   am
    21   105   106    2
    22   112   113    1
    23    88    87    2
    24     6     5    1
    25   117   116    1
    26     4     3    2
    27   116   113    1
    28   113   114    1
    29     8     9    1
    30   114   115    2
    31     3     2    1
    32     5     2    1
    33     5     7    1
    34    87    86    1
    35    12     9    1
    36   118   119    1
    37     9    10    1
    38   176   177    1
    39   176   173    1
    40    83    82    2
    41     2     1    1
    42    86    89    1
    43    86    85    1
    44   174   173    1
    45   174   175    2
    46   119   122    1
    47   119   120    1
    48    89    90    1
    49    82    85   am
    50    82    81    1
    51   173   172    1
    52   163   164    1
    53   172   165   am
    54    10    11    2
    55    10    13   am
    56   159   158    2
    57   124   120   am
    58   124   125    1
    59   122   123    1
    60   120   121    2
    61    81    80    1
    62    81    84    1
    63   126   125    1
    64   126   127    2
    65   158   157    1
    66   128   125    1
    67   128   129    1
    68    13    14    1
    69   164   165    1
    70   164   167    1
    71   165   166    2
    72   130   129   ar
    73   130   132   ar
    74   168   167    1
    75   168   169    1
    76   129   131   ar
    77   132   133   ar
    78   134   135    1
    79   131   133   ar
    80   160   157    1
    81   160   161    1
    82   157   156    1
    83    27    29   ar
    84    27    25   ar
    85    16    15    2
    86    24    25    1
    87    24    21    1
    88    29    30   ar
    89    14    15    1
    90    14    17    1
    91    25    26   ar
    92   169   170   ar
    93   169   171   ar
    94   161   162    1
    95    15    20   am
    96    30    28   ar
    97    26    28   ar
    98   156   154   am
    99   156   162    1
   100   155   154    2
   101    19    17    1
   102   135   136    1
   103   135   138    1
   104    17    18    1
   105    20    21    1
   106   154   153    1
   107   139   138    1
   108   139   140    1
   109    21    22    1
   110   146   145    2
   111   136   137    2
   112   142   140   am
   113    23    22    2
   114   140   141    2
   115   143   144    1
   116    56    57   ar
   117    56    54   ar
   118    57    55   ar
   119   153   152    1
   120    22    31   am
   121   145   152   am
   122   145   144    1
   123    79    77    1
   124    78    76    1
   125    55    53   ar
   126    54    53   ar
   127   144   147    1
   128    53    52    1
   129    31    32    1
   130    77    76    1
   131    76    73    1
   132   147   148    1
   133    52    49    1
   134    32    33    1
   135    32    35    1
   136    33    34    2
   137   148   149    1
   138    71    68    1
   139    73    74    1
   140    73    72    1
   141    74    75    2
   142    35    36    1
   143    49    50    1
   144    49    48    1
   145    50    51    2
   146    70    69    2
   147   149   150    1
   148   151   150    1
   149    68    69    1
   150    68    67    1
   151    48    41   am
   152    36    37    2
   153    36    38   am
   154    67    60   am
   155    39    40    1
   156    41    42    2
   157    41    40    1
   158    60    61    2
   159    60    59    1
   160    40    43    1
   161    43    44    1
   162    62    59    1
   163    62    63    1
   164    58    59    1
   165    64    63    1
   166    64    65    1
   167    44    45    1
   168    66    65    1
   169    45    47   ar
   170    45    46   ar
