@<TRIPOS>MOLECULE
tmp/3caoA00.pdb
 175 172 0 0 0
SMALL
GASTEIGER

@<TRIPOS>ATOM
      1  N         -3.3920   80.8730   43.5730 N.3     3  MET3       -0.1245
      2  CA        -3.9070   80.1070   42.4330 C.3     3  MET3        0.1570
      3  C         -4.8710   79.0270   42.9100 C.2     3  MET3        0.2261
      4  O         -4.5600   78.2690   43.8180 O.2     3  MET3       -0.2867
      5  CB        -2.7560   79.4630   41.6520 C.3     3  MET3        0.0387
      6  CG        -3.2470   78.7010   40.4140 C.3     3  MET3        0.0595
      7  SD        -1.9000   78.0930   39.3970 S.3     3  MET3       -0.1393
      8  CE        -0.8170   79.5090   39.2830 C.3     3  MET3        0.0692
      9  N         -5.9510   76.1380   37.0070 N.3     6  VAL6       -0.1231
     10  CA        -4.9180   76.4180   36.0290 C.3     6  VAL6        0.1678
     11  C         -5.3910   77.5720   35.1580 C.2     6  VAL6        0.2434
     12  O         -6.5870   77.6380   34.8700 O.2     6  VAL6       -0.2733
     13  CB        -4.7060   75.1460   35.1760 C.3     6  VAL6        0.0265
     14  CG1       -3.6960   75.4390   34.0730 C.3     6  VAL6        0.0020
     15  CG2       -4.2600   73.9880   36.0650 C.3     6  VAL6        0.0020
     16  N         -4.5170   78.4740   34.7930 N.am    7  PRO7       -0.2729
     17  CA        -4.7890   79.5600   33.8600 C.3     7  PRO7        0.1401
     18  C         -5.4100   79.0540   32.5640 C.2     7  PRO7        0.2269
     19  O         -5.0040   77.9950   32.0710 O.2     7  PRO7       -0.2865
     20  CB        -3.4370   80.2440   33.5610 C.3     7  PRO7        0.0296
     21  CG        -2.6530   79.8760   34.8040 C.3     7  PRO7        0.0237
     22  CD        -3.1460   78.5500   35.3180 C.3     7  PRO7        0.0939
     23  N         -6.8350   73.3770   40.6780 N.3    21  PHE21      -0.1241
     24  CA        -5.3980   73.3380   40.9190 C.3    21  PHE21       0.1605
     25  C         -5.0040   74.3900   41.9520 C.2    21  PHE21       0.2264
     26  O         -4.7530   75.5200   41.5330 O.2    21  PHE21      -0.2867
     27  CB        -4.6060   73.5680   39.6180 C.3    21  PHE21       0.0534
     28  CG        -3.1200   73.3220   39.7430 C.ar   21  PHE21      -0.0203
     29  CD1       -2.6220   72.1020   40.1640 C.ar   21  PHE21      -0.0042
     30  CD2       -2.2230   74.3620   39.5210 C.ar   21  PHE21      -0.0042
     31  CE1       -1.2610   71.8980   40.2960 C.ar   21  PHE21      -0.0003
     32  CE2       -0.8690   74.1660   39.6830 C.ar   21  PHE21      -0.0003
     33  CZ        -0.3640   72.9160   40.0110 C.ar   21  PHE21      -0.0000
     34  N         -2.3820   75.4610   43.4820 N.3    23  HIS23      -0.1241
     35  CA        -0.9620   75.2020   43.2660 C.3    23  HIS23       0.1621
     36  C         -0.1930   74.8170   44.5130 C.2    23  HIS23       0.2264
     37  O          0.3700   73.7250   44.6170 O.2    23  HIS23      -0.2867
     38  CB        -0.3560   76.4710   42.6420 C.3    23  HIS23       0.0745
     39  CG         1.0940   76.4290   42.3220 C.ar   23  HIS23       0.0817
     40  ND1        2.1290   76.5100   43.2410 N.ar   23  HIS23      -0.2268
     41  CD2        1.6800   76.5360   41.0990 C.ar   23  HIS23       0.1154
     42  CE1        3.2640   76.5960   42.5720 C.ar   23  HIS23       0.1986
     43  NE2        3.0410   76.6270   41.2640 N.ar   23  HIS23      -0.2212
     44  N         -1.7340   71.7430   46.4310 N.3    26  HIS26      -0.1226
     45  CA        -1.5220   70.5560   45.5940 C.3    26  HIS26       0.1752
     46  C         -0.0990   70.0430   45.7810 C.2    26  HIS26       0.2596
     47  O          0.1350   68.8460   45.9520 O.2    26  HIS26      -0.2718
     48  CB        -1.7470   70.9260   44.1170 C.3    26  HIS26       0.0759
     49  CG        -1.3210   69.8160   43.1850 C.ar   26  HIS26       0.0818
     50  ND1       -0.0380   69.6180   42.7500 N.ar   26  HIS26      -0.2268
     51  CD2       -2.0800   68.7900   42.7260 C.ar   26  HIS26       0.1154
     52  CE1       -0.0410   68.5750   41.9130 C.ar   26  HIS26       0.1986
     53  NE2       -1.2350   68.0310   41.9420 N.ar   26  HIS26      -0.2212
     54  N          0.8940   70.9210   45.5960 N.am   27  ASN27      -0.1974
     55  CA         2.2820   70.4770   45.5350 C.3    27  ASN27       0.1688
     56  C          2.7180   69.9290   46.8880 C.2    27  ASN27       0.2292
     57  O          3.5780   69.0590   47.0070 O.2    27  ASN27      -0.2864
     58  CB         3.2170   71.5720   45.0420 C.3    27  ASN27       0.1181
     59  CG         2.9450   71.9210   43.5910 C.2    27  ASN27       0.2629
     60  OD1        2.2210   71.1880   42.9000 O.2    27  ASN27      -0.2716
     61  ND2        3.3290   73.1170   43.1670 N.am   27  ASN27      -0.0877
     62  N          5.6690   67.1870   46.0490 N.3    32  ILE32      -0.1231
     63  CA         6.5480   67.6210   44.9680 C.3    32  ILE32       0.1692
     64  C          7.4550   68.7320   45.5020 C.2    32  ILE32       0.2592
     65  O          6.9890   69.8440   45.7150 O.2    32  ILE32      -0.2718
     66  CB         5.7570   68.0900   43.7360 C.3    32  ILE32       0.0266
     67  CG1        4.8490   66.9650   43.2220 C.3    32  ILE32       0.0019
     68  CG2        6.7150   68.5460   42.6420 C.3    32  ILE32       0.0020
     69  CD1        3.7570   67.4560   42.2900 C.3    32  ILE32       0.0001
     70  N          8.7440   68.4490   45.5310 N.am   33  GLU33      -0.1966
     71  CA         9.7200   69.3780   46.0910 C.3    33  GLU33       0.1733
     72  C         10.4430   70.1630   45.0050 C.2    33  GLU33       0.2617
     73  O         10.9240   71.2670   45.2900 O.2    33  GLU33      -0.2715
     74  CB        10.7570   68.6070   46.9150 C.3    33  GLU33       0.0429
     75  CG        10.1790   67.8290   48.0850 C.3    33  GLU33       0.1163
     76  CD         9.9470   68.7110   49.2950 C.2    33  GLU33       0.3649
     77  OE1        8.8550   69.3070   49.3900 O.co2  33  GLU33      -0.2457
     78  OE2       10.8820   68.8680   50.1080 O.co2  33  GLU33      -0.2457
     79  N         10.5950   69.5750   43.8240 N.am   34  SER34      -0.1936
     80  CA        11.3340   70.2060   42.7400 C.3    34  SER34       0.2055
     81  C         10.3910   71.0270   41.8610 C.2    34  SER34       0.2643
     82  O          9.5230   70.4130   41.2060 O.2    34  SER34      -0.2714
     83  CB        12.0170   69.1490   41.8700 C.3    34  SER34       0.2130
     84  OG        13.1210   68.5590   42.5440 O.3    34  SER34      -0.2179
     85  N         10.6230   72.3210   41.7170 N.am   35  CYS35      -0.1967
     86  CA         9.7580   73.1420   40.8770 C.3    35  CYS35       0.1712
     87  C          9.8240   72.7010   39.4280 C.2    35  CYS35       0.2296
     88  O          8.8220   72.7970   38.7150 O.2    35  CYS35      -0.2864
     89  CB        10.0560   74.6530   40.9200 C.3    35  CYS35       0.0983
     90  SG        10.2440   75.2460   42.6160 S.3    35  CYS35      -0.0798
     91  N          9.8240   69.7770   38.1970 N.3    37  ALA37      -0.1231
     92  CA         8.8640   68.7270   37.8840 C.3    37  ALA37       0.1694
     93  C          7.8510   69.2290   36.8660 C.2    37  ALA37       0.2592
     94  O          7.3840   68.4680   35.9990 O.2    37  ALA37      -0.2718
     95  CB         8.1670   68.2510   39.1450 C.3    37  ALA37       0.0304
     96  N          7.4320   70.4870   36.9790 N.am   38  CYS38      -0.1956
     97  CA         6.5220   71.0900   36.0410 C.3    38  CYS38       0.1843
     98  C          7.1300   72.2210   35.2430 C.2    38  CYS38       0.2625
     99  O          6.9520   72.3670   34.0390 O.2    38  CYS38      -0.2714
    100  CB         5.2900   71.6360   36.8040 C.3    38  CYS38       0.0997
    101  SG         4.4600   70.2860   37.7100 S.3    38  CYS38      -0.0797
    102  N          7.8310   73.1250   35.9910 N.am   39  HIS39      -0.1973
    103  CA         8.3760   74.3070   35.3040 C.3    39  HIS39       0.1656
    104  C          9.7260   73.9340   34.6920 C.2    39  HIS39       0.2291
    105  O         10.7770   74.2530   35.2510 O.2    39  HIS39      -0.2864
    106  CB         8.5740   75.4550   36.2910 C.3    39  HIS39       0.0771
    107  CG         7.3340   75.9580   36.9400 C.ar   39  HIS39       0.0820
    108  ND1        6.4810   76.8120   36.3110 N.ar   39  HIS39      -0.2267
    109  CD2        6.7960   75.7350   38.1630 C.ar   39  HIS39       0.1154
    110  CE1        5.4690   77.1040   37.1110 C.ar   39  HIS39       0.1986
    111  NE2        5.6450   76.4910   38.2700 N.ar   39  HIS39      -0.2212
    112  N         10.3440   78.6230   36.3050 N.3    54  VAL54      -0.1231
    113  CA         9.3710   79.2900   37.1850 C.3    54  VAL54       0.1692
    114  C          9.1580   80.7270   36.7250 C.2    54  VAL54       0.2593
    115  O         10.1320   81.4800   36.5750 O.2    54  VAL54      -0.2718
    116  CB         9.8240   79.2640   38.6510 C.3    54  VAL54       0.0266
    117  CG1        8.9700   80.1960   39.5130 C.3    54  VAL54       0.0020
    118  CG2        9.7300   77.8440   39.1890 C.3    54  VAL54       0.0020
    119  N          7.8930   81.1400   36.6390 N.am   55  GLY55      -0.1942
    120  CA         7.5440   82.4900   36.2330 C.3    55  GLY55       0.2014
    121  C          7.1670   82.6140   34.7560 C.2    55  GLY55       0.2640
    122  O          6.8400   83.7260   34.3130 O.2    55  GLY55      -0.2714
    123  N          7.6640   81.6890   33.9290 N.am   56  THR56      -0.1937
    124  CA         7.2710   81.6660   32.5200 C.3    56  THR56       0.2013
    125  C          6.0460   80.7810   32.3570 C.2    56  THR56       0.2484
    126  O          6.0620   79.6060   32.7410 O.2    56  THR56      -0.2729
    127  CB         8.4140   81.0690   31.6650 C.3    56  THR56       0.1807
    128  OG1        9.6050   81.8430   31.8730 O.3    56  THR56      -0.2208
    129  CG2        8.0260   81.0790   30.1900 C.3    56  THR56       0.0379
    130  N          4.9710   81.3280   31.8390 N.am   57  PRO57      -0.2715
    131  CA         3.7410   80.5890   31.6130 C.3    57  PRO57       0.1536
    132  C          4.0590   79.3920   30.7150 C.2    57  PRO57       0.2599
    133  O          4.8290   79.5530   29.7670 O.2    57  PRO57      -0.2715
    134  CB         2.7400   81.5530   30.9900 C.3    57  PRO57       0.0310
    135  CG         3.3710   82.9010   31.1860 C.3    57  PRO57       0.0237
    136  CD         4.8240   82.7680   31.5650 C.3    57  PRO57       0.0939
    137  N          3.3100   78.3000   30.8760 N.am   58  CYS58      -0.1954
    138  CA         3.4120   77.1850   29.9320 C.3    58  CYS58       0.1843
    139  C          3.0950   77.6610   28.5200 C.2    58  CYS58       0.2626
    140  O          3.8000   77.2770   27.5750 O.2    58  CYS58      -0.2714
    141  CB         2.4840   76.0180   30.2570 C.3    58  CYS58       0.0997
    142  SG         2.3320   75.5820   31.9850 S.3    58  CYS58      -0.0797
    143  N          2.1320   78.5570   28.3860 N.am   59  SER59      -0.1950
    144  CA         1.7170   79.0450   27.0700 C.3    59  SER59       0.1924
    145  C          2.7400   79.9170   26.3750 C.2    59  SER59       0.2314
    146  O          2.6000   80.1570   25.1610 O.2    59  SER59      -0.2863
    147  CB         0.3800   79.7700   27.2720 C.3    59  SER59       0.2116
    148  OG         0.5610   80.9110   28.0930 O.3    59  SER59      -0.2180
    149  N         -0.5550   70.1220   29.1270 N.3    77  TYR77      -0.1241
    150  CA        -1.1620   69.9520   30.4450 C.3    77  TYR77       0.1605
    151  C         -1.5870   68.5310   30.7380 C.2    77  TYR77       0.2264
    152  O         -1.4600   67.9970   31.8240 O.2    77  TYR77      -0.2867
    153  CB        -2.3410   70.9170   30.6030 C.3    77  TYR77       0.0534
    154  CG        -1.8820   72.3190   30.9740 C.ar   77  TYR77      -0.0201
    155  CD1       -1.9700   73.3860   30.1090 C.ar   77  TYR77      -0.0009
    156  CD2       -1.3790   72.4990   32.2630 C.ar   77  TYR77      -0.0009
    157  CE1       -1.5910   74.6700   30.5310 C.ar   77  TYR77       0.0417
    158  CE2       -1.0540   73.7760   32.6980 C.ar   77  TYR77       0.0417
    159  CZ        -1.1560   74.8240   31.8260 C.ar   77  TYR77       0.1957
    160  OH        -0.8340   76.0860   32.3150 O.3    77  TYR77      -0.2866
    161  N          1.4570   66.3750   31.4410 N.3    80  GLN80      -0.1231
    162  CA         2.1030   66.6720   32.7100 C.3    80  GLN80       0.1698
    163  C          1.2260   66.2410   33.8900 C.2    80  GLN80       0.2592
    164  O          1.6910   65.5560   34.7940 O.2    80  GLN80      -0.2718
    165  CB         2.5330   68.1340   32.8320 C.3    80  GLN80       0.0381
    166  CG         3.7070   68.2540   33.8210 C.3    80  GLN80       0.0905
    167  CD         4.2740   69.6660   33.7820 C.2    80  GLN80       0.2608
    168  OE1        5.2620   69.8830   33.0720 O.2    80  GLN80      -0.2717
    169  NE2        3.5060   70.6260   34.2720 N.am   80  GLN80      -0.0878
    170  N          0.0120   66.7790   33.9040 N.am   81  CYS81      -0.1970
    171  CA        -0.8950   66.6450   35.0340 C.3    81  CYS81       0.1712
    172  C         -1.5060   65.2400   35.1300 C.2    81  CYS81       0.2296
    173  O         -1.3280   64.5580   36.1220 O.2    81  CYS81      -0.2864
    174  CB        -2.0340   67.6730   34.9580 C.3    81  CYS81       0.0983
    175  SG        -1.5500   69.4060   34.7450 S.3    81  CYS81      -0.0798
@<TRIPOS>BOND
     1   146   145    2
     2   145   144    1
     3   144   147    1
     4   144   143    1
     5   147   148    1
     6   140   139    2
     7   143   139   am
     8   139   138    1
     9   149   150    1
    10   133   132    2
    11   138   141    1
    12   138   137    1
    13   155   157   ar
    14   155   154   ar
    15   129   127    1
    16   141   142    1
    17   150   153    1
    18   150   151    1
    19   157   159   ar
    20   153   154    1
    21   132   137   am
    22   132   131    1
    23   151   152    2
    24   154   156   ar
    25   134   135    1
    26   134   131    1
    27   135   136    1
    28   161   162    1
    29   136   130    1
    30   131   130    1
    31   127   128    1
    32   127   124    1
    33   159   160    1
    34   159   158   ar
    35   130   125   am
    36    19    18    2
    37   156   158   ar
    38   125   124    1
    39   125   126    2
    40   124   123    1
    41    18    17    1
    42   162   165    1
    43   162   163    1
    44   165   166    1
    45   168   167    2
    46    20    17    1
    47    20    21    1
    48   167   166    1
    49   167   169   am
    50    17    16    1
    51   163   170   am
    52   163   164    2
    53   170   171    1
    54   123   121   am
    55    99    98    2
    56    14    13    1
    57   122   121    2
    58   104   105    2
    59   104   103    1
    60   175   174    1
    61   121   120    1
    62    16    11   am
    63    16    22    1
    64    21    22    1
    65    12    11    2
    66   174   171    1
    67   171   172    1
    68   172   173    2
    69    11    10    1
    70    13    10    1
    71    13    15    1
    72    98   102   am
    73    98    97    1
    74   103   102    1
    75   103   106    1
    76    94    93    2
    77    10     9    1
    78    97   100    1
    79    97    96    1
    80   120   119    1
    81   106   107    1
    82   112   113    1
    83   108   107   ar
    84   108   110   ar
    85   115   114    2
    86   119   114   am
    87   114   113    1
    88   100   101    1
    89    93    96   am
    90    93    92    1
    91   107   109   ar
    92   110   111   ar
    93   113   116    1
    94    92    91    1
    95    92    95    1
    96   109   111   ar
    97   116   118    1
    98   116   117    1
    99    88    87    2
   100     8     7    1
   101     7     6    1
   102    87    86    1
   103    30    32   ar
   104    30    28   ar
   105    27    28    1
   106    27    24    1
   107    32    33   ar
   108    28    29   ar
   109    33    31   ar
   110    29    31   ar
   111     6     5    1
   112    23    24    1
   113    86    89    1
   114    86    85    1
   115    24    25    1
   116    89    90    1
   117    41    43   ar
   118    41    39   ar
   119    82    81    2
   120    43    42   ar
   121    26    25    2
   122     5     2    1
   123    85    81   am
   124    81    80    1
   125    83    84    1
   126    83    80    1
   127    52    53   ar
   128    52    50   ar
   129    53    51   ar
   130    69    67    1
   131    39    38    1
   132    39    40   ar
   133     2     3    1
   134     2     1    1
   135    42    40   ar
   136    38    35    1
   137    68    66    1
   138    51    49   ar
   139    80    79    1
   140    50    49   ar
   141    60    59    2
   142     3     4    2
   143    61    59   am
   144    49    48    1
   145    67    66    1
   146    35    34    1
   147    35    36    1
   148    59    58    1
   149    66    63    1
   150    79    72   am
   151    48    45    1
   152    36    37    2
   153    63    64    1
   154    63    62    1
   155    72    73    2
   156    72    71    1
   157    58    55    1
   158    64    70   am
   159    64    65    2
   160    70    71    1
   161    55    54    1
   162    55    56    1
   163    45    46    1
   164    45    44    1
   165    54    46   am
   166    46    47    2
   167    71    74    1
   168    56    57    2
   169    74    75    1
   170    75    76    1
   171    76    77   ar
   172    76    78   ar
