@<TRIPOS>MOLECULE
tmp/3caoA01.pdb
 158 157 0 0 0
SMALL
GASTEIGER

@<TRIPOS>ATOM
      1  N          7.4320   70.4870   36.9790 N.3    38  CYS38      -0.1221
      2  CA         6.5220   71.0900   36.0410 C.3    38  CYS38       0.1808
      3  C          7.1300   72.2210   35.2430 C.2    38  CYS38       0.2601
      4  O          6.9520   72.3670   34.0390 O.2    38  CYS38      -0.2717
      5  CB         5.2900   71.6360   36.8040 C.3    38  CYS38       0.0970
      6  SG         4.4600   70.2860   37.7100 S.3    38  CYS38      -0.0800
      7  N          7.8310   73.1250   35.9910 N.am   39  HIS39      -0.1961
      8  CA         8.3760   74.3070   35.3040 C.3    39  HIS39       0.1787
      9  C          9.7260   73.9340   34.6920 C.2    39  HIS39       0.2620
     10  O         10.7770   74.2530   35.2510 O.2    39  HIS39      -0.2715
     11  CB         8.5740   75.4550   36.2910 C.3    39  HIS39       0.0785
     12  CG         7.3340   75.9580   36.9400 C.ar   39  HIS39       0.0821
     13  ND1        6.4810   76.8120   36.3110 N.ar   39  HIS39      -0.2267
     14  CD2        6.7960   75.7350   38.1630 C.ar   39  HIS39       0.1154
     15  CE1        5.4690   77.1040   37.1110 C.ar   39  HIS39       0.1986
     16  NE2        5.6450   76.4910   38.2700 N.ar   39  HIS39      -0.2212
     17  N          9.7070   73.1870   33.5810 N.am   40  HIS40      -0.1959
     18  CA        10.9490   72.5840   33.0990 C.3    40  HIS40       0.1787
     19  C         11.6500   73.5010   32.0920 C.2    40  HIS40       0.2620
     20  O         11.1170   74.4940   31.6070 O.2    40  HIS40      -0.2715
     21  CB        10.7040   71.2270   32.4470 C.3    40  HIS40       0.0785
     22  CG         9.6070   71.2040   31.4270 C.ar   40  HIS40       0.0821
     23  ND1        8.9050   70.0200   31.2460 N.ar   40  HIS40      -0.2267
     24  CD2        9.0770   72.1110   30.5930 C.ar   40  HIS40       0.1154
     25  CE1        8.0220   70.2390   30.2700 C.ar   40  HIS40       0.1986
     26  NE2        8.1270   71.4910   29.8050 N.ar   40  HIS40      -0.2212
     27  N         12.9090   73.1810   31.8270 N.am   41  VAL41      -0.1963
     28  CA        13.6990   73.8670   30.8080 C.3    41  VAL41       0.1727
     29  C         14.2170   72.8200   29.8130 C.2    41  VAL41       0.2616
     30  O         15.0090   71.9650   30.2250 O.2    41  VAL41      -0.2715
     31  CB        14.9030   74.5970   31.4240 C.3    41  VAL41       0.0290
     32  CG1       15.8570   75.1330   30.3530 C.3    41  VAL41       0.0023
     33  CG2       14.4240   75.7730   32.2670 C.3    41  VAL41       0.0023
     34  N         13.5900   72.7660   28.6500 N.am   42  TRP42      -0.1974
     35  CA        14.0430   71.8950   27.5750 C.3    42  TRP42       0.1640
     36  C         14.7380   72.7220   26.5000 C.2    42  TRP42       0.2290
     37  O         14.1950   73.7130   26.0250 O.2    42  TRP42      -0.2864
     38  CB        12.8510   71.2190   26.8950 C.3    42  TRP42       0.0576
     39  CG        12.2480   70.0420   27.5800 C.ar   42  TRP42       0.0006
     40  CD1       11.0400   70.0050   28.2420 C.ar   42  TRP42       0.0946
     41  CD2       12.6610   68.6800   27.4500 C.ar   42  TRP42       0.0152
     42  NE1       10.7080   68.7010   28.5510 N.ar   42  TRP42      -0.2442
     43  CE2       11.6800   67.8650   28.0450 C.ar   42  TRP42       0.0810
     44  CE3       13.7130   68.0640   26.7420 C.ar   42  TRP42       0.0012
     45  CZ2       11.7310   66.4770   28.0040 C.ar   42  TRP42       0.0191
     46  CZ3       13.8030   66.6850   26.7600 C.ar   42  TRP42       0.0001
     47  CH2       12.8290   65.9080   27.4200 C.ar   42  TRP42       0.0015
     48  N         16.4750   69.3370   22.8480 N.3    45  GLY45      -0.1225
     49  CA        16.1110   67.9730   23.1640 C.3    45  GLY45       0.1811
     50  C         16.6920   67.4540   24.4620 C.2    45  GLY45       0.2280
     51  O         16.6320   66.2470   24.7360 O.2    45  GLY45      -0.2866
     52  N         16.6660   67.8780   28.6830 N.3    47  LEU47      -0.1245
     53  CA        15.9730   68.3950   29.8590 C.3    47  LEU47       0.1561
     54  C         16.9710   68.8360   30.9160 C.2    47  LEU47       0.2260
     55  O         17.7250   68.0100   31.4540 O.2    47  LEU47      -0.2867
     56  CB        15.0230   67.3080   30.3750 C.3    47  LEU47       0.0270
     57  CG        14.2450   67.6370   31.6520 C.3    47  LEU47       0.0019
     58  CD1       13.2920   68.7950   31.4270 C.3    47  LEU47       0.0001
     59  CD2       13.4850   66.4010   32.1290 C.3    47  LEU47       0.0001
     60  N         11.8590   76.9320   34.8700 N.3    53  SER53      -0.1217
     61  CA        11.2790   78.0430   34.1440 C.3    53  SER53       0.1889
     62  C         10.1760   78.6930   34.9840 C.2    53  SER53       0.2288
     63  O          9.2230   79.2460   34.4460 O.2    53  SER53      -0.2866
     64  CB        10.6890   77.5610   32.8100 C.3    53  SER53       0.2089
     65  OG         9.7460   76.5080   33.0590 O.3    53  SER53      -0.2183
     66  N          7.6640   81.6890   33.9290 N.3    56  THR56      -0.1204
     67  CA         7.2710   81.6660   32.5200 C.3    56  THR56       0.1979
     68  C          6.0460   80.7810   32.3570 C.2    56  THR56       0.2460
     69  O          6.0620   79.6060   32.7410 O.2    56  THR56      -0.2732
     70  CB         8.4140   81.0690   31.6650 C.3    56  THR56       0.1783
     71  OG1        9.6050   81.8430   31.8730 O.3    56  THR56      -0.2211
     72  CG2        8.0260   81.0790   30.1900 C.3    56  THR56       0.0376
     73  N          4.9710   81.3280   31.8390 N.am   57  PRO57      -0.2717
     74  CA         3.7410   80.5890   31.6130 C.3    57  PRO57       0.1535
     75  C          4.0590   79.3920   30.7150 C.2    57  PRO57       0.2598
     76  O          4.8290   79.5530   29.7670 O.2    57  PRO57      -0.2715
     77  CB         2.7400   81.5530   30.9900 C.3    57  PRO57       0.0310
     78  CG         3.3710   82.9010   31.1860 C.3    57  PRO57       0.0237
     79  CD         4.8240   82.7680   31.5650 C.3    57  PRO57       0.0939
     80  N          3.3100   78.3000   30.8760 N.am   58  CYS58      -0.1968
     81  CA         3.4120   77.1850   29.9320 C.3    58  CYS58       0.1712
     82  C          3.0950   77.6610   28.5200 C.2    58  CYS58       0.2296
     83  O          3.8000   77.2770   27.5750 O.2    58  CYS58      -0.2864
     84  CB         2.4840   76.0180   30.2570 C.3    58  CYS58       0.0983
     85  SG         2.3320   75.5820   31.9850 S.3    58  CYS58      -0.0798
     86  N          5.8030   78.8780   25.8400 N.3    61  CYS61      -0.1221
     87  CA         6.5230   77.9190   25.0080 C.3    61  CYS61       0.1808
     88  C          5.6410   76.9100   24.3000 C.2    61  CYS61       0.2601
     89  O          6.1340   76.2220   23.3770 O.2    61  CYS61      -0.2717
     90  CB         7.5320   77.1370   25.8620 C.3    61  CYS61       0.0970
     91  SG         8.6000   78.3090   26.7530 S.3    61  CYS61      -0.0800
     92  N          4.4060   76.7370   24.7300 N.am   62  HIS62      -0.1975
     93  CA         3.5130   75.7410   24.1660 C.3    62  HIS62       0.1656
     94  C          2.3460   76.4430   23.4740 C.2    62  HIS62       0.2291
     95  O          1.5480   77.1030   24.1350 O.2    62  HIS62      -0.2864
     96  CB         2.9500   74.8000   25.2470 C.3    62  HIS62       0.0771
     97  CG         4.0350   73.9190   25.7990 C.ar   62  HIS62       0.0820
     98  ND1        4.4060   72.7550   25.1720 N.ar   62  HIS62      -0.2267
     99  CD2        4.8070   74.0410   26.9070 C.ar   62  HIS62       0.1154
    100  CE1        5.3300   72.1550   25.9130 C.ar   62  HIS62       0.1986
    101  NE2        5.6320   72.9400   26.9490 N.ar   62  HIS62      -0.2212
    102  N          8.0740   68.1040   18.1190 N.3    69  ASP69      -0.1225
    103  CA         7.7060   67.3090   19.2910 C.3    69  ASP69       0.1805
    104  C          7.4550   68.1780   20.5240 C.2    69  ASP69       0.2598
    105  O          7.3040   67.5900   21.5990 O.2    69  ASP69      -0.2718
    106  CB         8.7680   66.2610   19.5890 C.3    69  ASP69       0.1424
    107  CG        10.0830   66.7870   20.0980 C.2    69  ASP69       0.3668
    108  OD1       10.3210   68.0110   20.1670 O.co2  69  ASP69      -0.2456
    109  OD2       10.9290   65.9210   20.4550 O.co2  69  ASP69      -0.2456
    110  N          7.2360   69.4670   20.3480 N.am   70  THR70      -0.1939
    111  CA         6.7470   70.2950   21.4740 C.3    70  THR70       0.2013
    112  C          5.2350   70.2380   21.4710 C.2    70  THR70       0.2484
    113  O          4.6070   70.6210   20.4820 O.2    70  THR70      -0.2729
    114  CB         7.2200   71.7460   21.2880 C.3    70  THR70       0.1807
    115  OG1        8.6450   71.8160   21.1220 O.3    70  THR70      -0.2208
    116  CG2        6.8310   72.6030   22.4950 C.3    70  THR70       0.0379
    117  N          4.6070   69.7230   22.5200 N.am   71  PRO71      -0.2726
    118  CA         3.1810   69.4340   22.5120 C.3    71  PRO71       0.1402
    119  C          2.3880   70.7320   22.4320 C.2    71  PRO71       0.2269
    120  O          2.9220   71.7640   22.8500 O.2    71  PRO71      -0.2865
    121  CB         2.8600   68.6730   23.8060 C.3    71  PRO71       0.0296
    122  CG         4.1210   68.8940   24.6210 C.3    71  PRO71       0.0237
    123  CD         5.2920   69.0910   23.6590 C.3    71  PRO71       0.0939
    124  N          0.1410   69.3890   26.4140 N.3    76  ALA76      -0.1231
    125  CA         1.1620   69.6130   27.4550 C.3    76  ALA76       0.1694
    126  C          0.5690   69.4600   28.8480 C.2    76  ALA76       0.2592
    127  O          1.1670   68.7970   29.6910 O.2    76  ALA76      -0.2718
    128  CB         1.7800   71.0010   27.2910 C.3    76  ALA76       0.0304
    129  N         -0.5550   70.1220   29.1270 N.am   77  TYR77      -0.1976
    130  CA        -1.1620   69.9520   30.4450 C.3    77  TYR77       0.1639
    131  C         -1.5870   68.5310   30.7380 C.2    77  TYR77       0.2290
    132  O         -1.4600   67.9970   31.8240 O.2    77  TYR77      -0.2864
    133  CB        -2.3410   70.9170   30.6030 C.3    77  TYR77       0.0560
    134  CG        -1.8820   72.3190   30.9740 C.ar   77  TYR77      -0.0198
    135  CD1       -1.9700   73.3860   30.1090 C.ar   77  TYR77      -0.0009
    136  CD2       -1.3790   72.4990   32.2630 C.ar   77  TYR77      -0.0009
    137  CE1       -1.5910   74.6700   30.5310 C.ar   77  TYR77       0.0417
    138  CE2       -1.0540   73.7760   32.6980 C.ar   77  TYR77       0.0417
    139  CZ        -1.1560   74.8240   31.8260 C.ar   77  TYR77       0.1957
    140  OH        -0.8340   76.0860   32.3150 O.3    77  TYR77      -0.2866
    141  N         -0.4560   65.6780   29.4730 N.3    79  GLN79      -0.1231
    142  CA         0.7070   64.8180   29.6940 C.3    79  GLN79       0.1698
    143  C          1.3610   65.0790   31.0440 C.2    79  GLN79       0.2592
    144  O          1.8050   64.1660   31.7240 O.2    79  GLN79      -0.2718
    145  CB         1.7110   65.0420   28.5590 C.3    79  GLN79       0.0381
    146  CG         1.1510   64.4600   27.2490 C.3    79  GLN79       0.0905
    147  CD         2.1330   64.7260   26.1100 C.2    79  GLN79       0.2608
    148  OE1        3.3390   64.7040   26.3200 O.2    79  GLN79      -0.2717
    149  NE2        1.6060   64.7090   24.9050 N.am   79  GLN79      -0.0878
    150  N          1.4570   66.3750   31.4410 N.am   80  GLN80      -0.1979
    151  CA         2.1030   66.6720   32.7100 C.3    80  GLN80       0.1601
    152  C          1.2260   66.2410   33.8900 C.2    80  GLN80       0.2287
    153  O          1.6910   65.5560   34.7940 O.2    80  GLN80      -0.2864
    154  CB         2.5330   68.1340   32.8320 C.3    80  GLN80       0.0394
    155  CG         3.7070   68.2540   33.8210 C.3    80  GLN80       0.0908
    156  CD         4.2740   69.6660   33.7820 C.2    80  GLN80       0.2608
    157  OE1        5.2620   69.8830   33.0720 O.2    80  GLN80      -0.2717
    158  NE2        3.5060   70.6260   34.2720 N.am   80  GLN80      -0.0878
@<TRIPOS>BOND
     1   102   103    1
     2   103   106    1
     3   103   104    1
     4   106   107    1
     5   107   108   ar
     6   107   109   ar
     7   110   104   am
     8   110   111    1
     9   113   112    2
    10   104   105    2
    11   115   114    1
    12   114   111    1
    13   114   116    1
    14   112   111    1
    15   112   117   am
    16   119   118    1
    17   119   120    2
    18   118   117    1
    19   118   121    1
    20   117   123    1
    21    48    49    1
    22    49    50    1
    23    89    88    2
    24    94    95    2
    25    94    93    1
    26   123   122    1
    27   121   122    1
    28    93    92    1
    29    93    96    1
    30    88    92   am
    31    88    87    1
    32    50    51    2
    33   149   147   am
    34    87    86    1
    35    87    90    1
    36    98    97   ar
    37    98   100   ar
    38    96    97    1
    39    97    99   ar
    40    90    91    1
    41   100   101   ar
    42    37    36    2
    43   147   148    2
    44   147   146    1
    45   124   125    1
    46    36    35    1
    47    44    46   ar
    48    44    41   ar
    49    46    47   ar
    50    38    35    1
    51    38    39    1
    52    99   101   ar
    53   146   145    1
    54   128   125    1
    55    47    45   ar
    56    41    39   ar
    57    41    43   ar
    58   125   126    1
    59    83    82    2
    60    35    34    1
    61    39    40   ar
    62    45    43   ar
    63    43    42   ar
    64    40    42   ar
    65    82    81    1
    66   145   142    1
    67    34    29   am
    68    52    53    1
    69   126   129   am
    70   126   127    2
    71   129   130    1
    72   141   142    1
    73   142   143    1
    74    76    75    2
    75    26    25   ar
    76    26    24   ar
    77    29    30    2
    78    29    28    1
    79    53    56    1
    80    53    54    1
    81    81    84    1
    82    81    80    1
    83   135   137   ar
    84   135   134   ar
    85    72    70    1
    86    84    85    1
    87    25    23   ar
    88    32    31    1
    89    56    57    1
    90   130   133    1
    91   130   131    1
    92   137   139   ar
    93    24    22   ar
    94   133   134    1
    95    75    80   am
    96    75    74    1
    97   131   132    2
    98    28    31    1
    99    28    27    1
   100    54    55    2
   101   134   136   ar
   102    77    78    1
   103    77    74    1
   104   143   150   am
   105   143   144    2
   106    78    79    1
   107    23    22   ar
   108    31    33    1
   109    58    57    1
   110    22    21    1
   111   150   151    1
   112    79    73    1
   113    20    19    2
   114    74    73    1
   115    57    59    1
   116    70    71    1
   117    70    67    1
   118   139   140    1
   119   139   138   ar
   120    27    19   am
   121    73    68   am
   122    19    18    1
   123   136   138   ar
   124    68    67    1
   125    68    69    2
   126    21    18    1
   127    67    66    1
   128   151   154    1
   129   151   152    1
   130    64    65    1
   131    64    61    1
   132   154   155    1
   133   157   156    2
   134    18    17    1
   135    17     9   am
   136   156   155    1
   137   156   158   am
   138   152   153    2
   139     4     3    2
   140    61    60    1
   141    61    62    1
   142    63    62    2
   143     9    10    2
   144     9     8    1
   145     3     7   am
   146     3     2    1
   147     8     7    1
   148     8    11    1
   149     2     5    1
   150     2     1    1
   151    11    12    1
   152    13    12   ar
   153    13    15   ar
   154     5     6    1
   155    12    14   ar
   156    15    16   ar
   157    14    16   ar
