@<TRIPOS>MOLECULE
tmp/3capA02.pdb
 81 75 0 0 0
SMALL
GASTEIGER

@<TRIPOS>ATOM
      1  N         -3.2370  -34.1210  -12.8440 N.3   220  PHE220     -0.1241
      2  CA        -4.5730  -34.0340  -13.4400 C.3   220  PHE220      0.1605
      3  C         -5.5140  -33.0940  -12.7020 C.2   220  PHE220      0.2264
      4  O         -6.1890  -32.2720  -13.3260 O.2   220  PHE220     -0.2867
      5  CB        -5.2170  -35.4140  -13.5610 C.3   220  PHE220      0.0534
      6  CG        -5.1570  -35.9760  -14.9410 C.ar  220  PHE220     -0.0203
      7  CD1       -4.0510  -36.6890  -15.3700 C.ar  220  PHE220     -0.0042
      8  CD2       -6.2080  -35.7810  -15.8190 C.ar  220  PHE220     -0.0042
      9  CE1       -3.9960  -37.2100  -16.6560 C.ar  220  PHE220     -0.0003
     10  CE2       -6.1620  -36.2950  -17.1010 C.ar  220  PHE220     -0.0003
     11  CZ        -5.0530  -37.0120  -17.5210 C.ar  220  PHE220     -0.0000
     12  N         -4.0750  -29.2310  -12.9620 N.3   223  TYR223     -0.1227
     13  CA        -4.3000  -28.6820  -14.2910 C.3   223  TYR223      0.1736
     14  C         -5.7800  -28.7170  -14.6500 C.2   223  TYR223      0.2596
     15  O         -6.2680  -27.8400  -15.3580 O.2   223  TYR223     -0.2718
     16  CB        -3.4390  -29.3770  -15.3490 C.3   223  TYR223      0.0548
     17  CG        -2.0110  -28.8980  -15.3340 C.ar  223  TYR223     -0.0200
     18  CD1       -0.9480  -29.7900  -15.3300 C.ar  223  TYR223     -0.0009
     19  CD2       -1.7250  -27.5430  -15.3030 C.ar  223  TYR223     -0.0009
     20  CE1        0.3700  -29.3320  -15.3130 C.ar  223  TYR223      0.0417
     21  CE2       -0.4230  -27.0820  -15.2830 C.ar  223  TYR223      0.0417
     22  CZ         0.6190  -27.9730  -15.2890 C.ar  223  TYR223      0.1957
     23  OH         1.9070  -27.4950  -15.2680 O.3   223  TYR223     -0.2866
     24  N         -6.4900  -29.7260  -14.1520 N.am  224  GLY224     -0.1957
     25  CA        -7.9240  -29.8250  -14.3810 C.3   224  GLY224      0.1869
     26  C         -8.6030  -28.5480  -13.9310 C.2   224  GLY224      0.2309
     27  O         -9.2550  -27.8640  -14.7180 O.2   224  GLY224     -0.2863
     28  N         -7.6170  -25.2460  -15.8360 N.3   227  VAL227     -0.1245
     29  CA        -8.3480  -25.0820  -17.1010 C.3   227  VAL227      0.1561
     30  C         -9.7980  -24.6950  -16.8380 C.2   227  VAL227      0.2260
     31  O        -10.3870  -23.9200  -17.5790 O.2   227  VAL227     -0.2867
     32  CB        -8.2860  -26.3350  -18.0050 C.3   227  VAL227      0.0252
     33  CG1       -9.3500  -26.2670  -19.0840 C.3   227  VAL227      0.0019
     34  CG2       -6.9030  -26.4680  -18.6350 C.3   227  VAL227      0.0019
     35  N        -11.3260  -21.1620  -18.3070 N.3   231  LYS231     -0.1245
     36  CA       -12.4380  -21.2010  -19.2430 C.3   231  LYS231      0.1561
     37  C        -13.6710  -20.5570  -18.6190 C.2   231  LYS231      0.2260
     38  O        -14.5330  -20.0180  -19.3220 O.2   231  LYS231     -0.2867
     39  CB       -12.7230  -22.6460  -19.6900 C.3   231  LYS231      0.0271
     40  CG       -11.5860  -23.2730  -20.5140 C.3   231  LYS231      0.0035
     41  CD       -11.8860  -24.7080  -20.9080 C.3   231  LYS231      0.0206
     42  CE       -12.3540  -24.8200  -22.3500 C.3   231  LYS231      0.1093
     43  NZ       -11.2120  -25.1540  -23.2440 N.3   231  LYS231     -0.1314
     44  N         -7.6140  -20.3050  -24.9820 N.3   248  LYS248     -0.1245
     45  CA        -7.3400  -21.3630  -25.9440 C.3   248  LYS248      0.1561
     46  C         -5.9270  -21.8780  -25.7000 C.2   248  LYS248      0.2260
     47  O         -5.7090  -23.0720  -25.4780 O.2   248  LYS248     -0.2867
     48  CB        -7.4350  -20.8170  -27.3680 C.3   248  LYS248      0.0271
     49  CG        -8.4300  -21.5270  -28.2720 C.3   248  LYS248      0.0035
     50  CD        -9.8390  -20.9520  -28.0810 C.3   248  LYS248      0.0206
     51  CE       -10.8300  -21.5130  -29.0990 C.3   248  LYS248      0.1093
     52  NZ       -12.2270  -21.0960  -28.7810 N.3   248  LYS248     -0.1314
     53  N         -5.2130  -23.9710  -22.5790 N.3   251  THR251     -0.1218
     54  CA        -5.7790  -25.3100  -22.6700 C.3   251  THR251      0.1862
     55  C         -4.8960  -26.2070  -23.5270 C.2   251  THR251      0.2287
     56  O         -4.4820  -27.2850  -23.0960 O.2   251  THR251     -0.2866
     57  CB        -7.2180  -25.3000  -23.2220 C.3   251  THR251      0.1770
     58  OG1       -8.0000  -24.3300  -22.5130 O.3   251  THR251     -0.2211
     59  CG2       -7.8540  -26.6760  -23.0580 C.3   251  THR251      0.0375
     60  N         -1.9180  -27.2560  -21.4880 N.3   254  VAL254     -0.1231
     61  CA        -2.1650  -28.2390  -20.4410 C.3   254  VAL254      0.1692
     62  C         -2.2510  -29.6280  -21.0740 C.2   254  VAL254      0.2591
     63  O         -1.7180  -30.6040  -20.5420 O.2   254  VAL254     -0.2718
     64  CB        -3.4390  -27.9150  -19.6280 C.3   254  VAL254      0.0266
     65  CG1       -3.7110  -28.9950  -18.6010 C.3   254  VAL254      0.0020
     66  CG2       -3.2850  -26.5830  -18.9410 C.3   254  VAL254      0.0020
     67  N         -2.9240  -29.7000  -22.2180 N.am  255  ILE255     -0.1980
     68  CA        -3.1120  -30.9520  -22.9460 C.3   255  ILE255      0.1595
     69  C         -1.7730  -31.5610  -23.3700 C.2   255  ILE255      0.2287
     70  O         -1.4760  -32.7190  -23.0630 O.2   255  ILE255     -0.2864
     71  CB        -4.0170  -30.7300  -24.1740 C.3   255  ILE255      0.0276
     72  CG1       -5.4580  -30.5160  -23.7210 C.3   255  ILE255      0.0022
     73  CG2       -3.9340  -31.9000  -25.1350 C.3   255  ILE255      0.0022
     74  CD1       -6.4250  -30.4050  -24.8640 C.3   255  ILE255      0.0001
     75  N          0.0090  -32.8440  -20.3020 N.3   258  VAL258     -0.1245
     76  CA        -0.4970  -34.0650  -19.7030 C.3   258  VAL258      0.1561
     77  C         -0.1830  -35.2480  -20.6010 C.2   258  VAL258      0.2260
     78  O          0.3830  -36.2410  -20.1460 O.2   258  VAL258     -0.2867
     79  CB        -1.9880  -33.9810  -19.4080 C.3   258  VAL258      0.0252
     80  CG1       -2.5020  -35.3320  -18.9650 C.3   258  VAL258      0.0019
     81  CG2       -2.2270  -32.9610  -18.3300 C.3   258  VAL258      0.0019
@<TRIPOS>BOND
     1    51    52    1
     2    51    50    1
     3    49    50    1
     4    49    48    1
     5    48    45    1
     6    45    46    1
     7    45    44    1
     8    46    47    2
     9    73    71    1
    10    74    72    1
    11    71    72    1
    12    71    68    1
    13    55    56    2
    14    55    54    1
    15    69    70    2
    16    69    68    1
    17    43    42    1
    18    57    59    1
    19    57    54    1
    20    57    58    1
    21    68    67    1
    22    54    53    1
    23    42    41    1
    24    67    62   am
    25    60    61    1
    26    62    63    2
    27    62    61    1
    28    41    40    1
    29    77    78    2
    30    77    76    1
    31    40    39    1
    32    61    64    1
    33    75    76    1
    34    76    79    1
    35    39    36    1
    36    64    66    1
    37    64    65    1
    38    79    80    1
    39    79    81    1
    40    38    37    2
    41    36    37    1
    42    36    35    1
    43    33    32    1
    44    34    32    1
    45    32    29    1
    46    31    30    2
    47    11    10   ar
    48    11     9   ar
    49    29    30    1
    50    29    28    1
    51    10     8   ar
    52     9     7   ar
    53     8     6   ar
    54     7     6   ar
    55    15    14    2
    56    16    17    1
    57    16    13    1
    58    17    18   ar
    59    17    19   ar
    60    18    20   ar
    61    20    22   ar
    62    19    21   ar
    63    22    21   ar
    64    22    23    1
    65     6     5    1
    66    27    26    2
    67    14    13    1
    68    14    24   am
    69    25    24    1
    70    25    26    1
    71    13    12    1
    72     5     2    1
    73     2     1    1
    74     2     3    1
    75     4     3    2
