@<TRIPOS>MOLECULE
tmp/3capA05.pdb
 123 116 0 0 0
SMALL
GASTEIGER

@<TRIPOS>ATOM
      1  N         21.8250  -43.9260  -30.0880 N.3    43  TYR43      -0.1241
      2  CA        20.7320  -43.3080  -29.3730 C.3    43  TYR43       0.1605
      3  C         21.2420  -42.4390  -28.2200 C.2    43  TYR43       0.2264
      4  O         20.8690  -41.2730  -28.1070 O.2    43  TYR43      -0.2867
      5  CB        19.7190  -44.3500  -28.8680 C.3    43  TYR43       0.0534
      6  CG        18.4170  -43.6870  -28.5340 C.ar   43  TYR43      -0.0201
      7  CD1       17.6300  -43.1410  -29.5450 C.ar   43  TYR43      -0.0009
      8  CD2       17.9880  -43.5590  -27.2190 C.ar   43  TYR43      -0.0009
      9  CE1       16.4410  -42.4950  -29.2620 C.ar   43  TYR43       0.0417
     10  CE2       16.7880  -42.9170  -26.9240 C.ar   43  TYR43       0.0417
     11  CZ        16.0210  -42.3890  -27.9550 C.ar   43  TYR43       0.1957
     12  OH        14.8310  -41.7450  -27.6960 O.3    43  TYR43      -0.2866
     13  N         22.6720  -39.2850  -29.5750 N.3    46  LEU46      -0.1231
     14  CA        21.6020  -38.3430  -29.9060 C.3    46  LEU46       0.1693
     15  C         21.0650  -37.6260  -28.6620 C.2    46  LEU46       0.2591
     16  O         20.9370  -36.4040  -28.6520 O.2    46  LEU46      -0.2718
     17  CB        20.4520  -39.0630  -30.6010 C.3    46  LEU46       0.0284
     18  CG        19.4240  -38.1330  -31.2370 C.3    46  LEU46       0.0019
     19  CD1       20.0850  -37.2780  -32.3200 C.3    46  LEU46       0.0001
     20  CD2       18.3030  -38.9470  -31.8250 C.3    46  LEU46       0.0001
     21  N         20.7430  -38.3970  -27.6250 N.am   47  LEU47      -0.1980
     22  CA        20.2750  -37.8460  -26.3550 C.3    47  LEU47       0.1596
     23  C         21.2370  -36.8280  -25.7460 C.2    47  LEU47       0.2287
     24  O         20.8170  -35.8040  -25.2320 O.2    47  LEU47      -0.2864
     25  CB        19.9890  -38.9710  -25.3600 C.3    47  LEU47       0.0297
     26  CG        18.5080  -39.3510  -25.2650 C.3    47  LEU47       0.0022
     27  CD1       17.7880  -39.0770  -26.5730 C.3    47  LEU47       0.0001
     28  CD2       18.3500  -40.8020  -24.8450 C.3    47  LEU47       0.0001
     29  N         21.6020  -33.6000  -28.1660 N.3    50  LEU50      -0.1245
     30  CA        20.4440  -32.7170  -28.0160 C.3    50  LEU50       0.1561
     31  C         20.2780  -32.2980  -26.5600 C.2    50  LEU50       0.2260
     32  O         20.2360  -31.1160  -26.2470 O.2    50  LEU50      -0.2867
     33  CB        19.1510  -33.3570  -28.5230 C.3    50  LEU50       0.0270
     34  CG        19.1300  -33.7560  -30.0020 C.3    50  LEU50       0.0019
     35  CD1       17.7960  -34.3520  -30.3830 C.3    50  LEU50       0.0001
     36  CD2       19.4170  -32.5830  -30.8770 C.3    50  LEU50       0.0001
     37  N         -4.6050  -25.7560  -24.7410 N.3   252  ARG252     -0.1231
     38  CA        -3.7480  -26.5190  -25.6330 C.3   252  ARG252      0.1694
     39  C         -2.4960  -26.9800  -24.8840 C.2   252  ARG252      0.2591
     40  O         -2.1260  -28.1510  -24.9370 O.2   252  ARG252     -0.2718
     41  CB        -3.3790  -25.6790  -26.8530 C.3   252  ARG252      0.0321
     42  CG        -2.9430  -26.4720  -28.0840 C.3   252  ARG252      0.0489
     43  CD        -2.7440  -25.5190  -29.2720 C.3   252  ARG252      0.2205
     44  NE        -3.9810  -24.9880  -29.8740 N.pl3 252  ARG252     -0.0865
     45  CZ        -4.8000  -24.1020  -29.3010 C.cat 252  ARG252      0.5346
     46  NH1       -4.5340  -23.6580  -28.0790 N.pl3 252  ARG252      0.1354
     47  NH2       -5.8960  -23.6690  -29.9410 N.pl3 252  ARG252      0.1354
     48  N         -1.8540  -26.0550  -24.1780 N.am  253  MET253     -0.1979
     49  CA        -0.6610  -26.3770  -23.3950 C.3   253  MET253      0.1605
     50  C         -0.8830  -27.4230  -22.2990 C.2   253  MET253      0.2287
     51  O         -0.1150  -28.3780  -22.1860 O.2   253  MET253     -0.2864
     52  CB        -0.0470  -25.1070  -22.8050 C.3   253  MET253      0.0413
     53  CG         0.7780  -24.3200  -23.8120 C.3   253  MET253      0.0598
     54  SD         2.2170  -25.2880  -24.3270 S.3   253  MET253     -0.1393
     55  CE         2.7550  -25.8910  -22.7110 C.3   253  MET253      0.0692
     56  N         -0.9780  -30.7650  -24.0780 N.3   256  ILE256     -0.1245
     57  CA         0.3890  -31.1160  -24.4340 C.3   256  ILE256      0.1561
     58  C          1.2010  -31.5870  -23.2220 C.2   256  ILE256      0.2260
     59  O          1.9510  -32.5550  -23.2980 O.2   256  ILE256     -0.2867
     60  CB         1.0980  -29.9080  -25.0460 C.3   256  ILE256      0.0252
     61  CG1        0.4500  -29.5500  -26.3820 C.3   256  ILE256      0.0019
     62  CG2        2.5880  -30.1770  -25.2090 C.3   256  ILE256      0.0019
     63  CD1        1.0840  -28.3670  -27.0470 C.3   256  ILE256      0.0001
     64  N         13.2460  -46.3100  -23.1550 N.3   293  PHE293     -0.1241
     65  CA        13.3740  -45.3730  -24.2680 C.3   293  PHE293      0.1605
     66  C         12.4570  -44.1740  -24.0740 C.2   293  PHE293      0.2264
     67  O         12.8970  -43.0220  -24.1410 O.2   293  PHE293     -0.2867
     68  CB        13.0470  -46.0930  -25.5850 C.3   293  PHE293      0.0534
     69  CG        12.5100  -45.1920  -26.6760 C.ar  293  PHE293     -0.0203
     70  CD1       13.2170  -45.0080  -27.8570 C.ar  293  PHE293     -0.0042
     71  CD2       11.2940  -44.5410  -26.5270 C.ar  293  PHE293     -0.0042
     72  CE1       12.7200  -44.1870  -28.8700 C.ar  293  PHE293     -0.0003
     73  CE2       10.7960  -43.7150  -27.5300 C.ar  293  PHE293     -0.0003
     74  CZ        11.5090  -43.5400  -28.7030 C.ar  293  PHE293     -0.0000
     75  N         14.0670  -40.4000  -23.2640 N.3   297  THR297     -0.1218
     76  CA        14.0240  -39.3750  -24.2970 C.3   297  THR297      0.1862
     77  C         13.2760  -38.1110  -23.8090 C.2   297  THR297      0.2287
     78  O         13.2680  -37.0710  -24.4730 O.2   297  THR297     -0.2866
     79  CB        13.4770  -39.9320  -25.6300 C.3   297  THR297      0.1770
     80  OG1       13.2030  -38.8460  -26.5260 O.3   297  THR297     -0.2211
     81  CG2       12.1970  -40.7470  -25.4000 C.3   297  THR297      0.0375
     82  N         14.9450  -34.5850  -23.3660 N.3   300  VAL300     -0.1231
     83  CA        15.0330  -33.6530  -24.4780 C.3   300  VAL300      0.1692
     84  C         13.6680  -32.9860  -24.7050 C.2   300  VAL300      0.2592
     85  O         13.5860  -31.7810  -24.9020 O.2   300  VAL300     -0.2718
     86  CB        15.5460  -34.3480  -25.7430 C.3   300  VAL300      0.0266
     87  CG1       15.3960  -33.4540  -27.0000 C.3   300  VAL300      0.0020
     88  CG2       16.9820  -34.7400  -25.5370 C.3   300  VAL300      0.0020
     89  N         12.5840  -33.7500  -24.6530 N.am  301  TYR301     -0.1976
     90  CA        11.2820  -33.1520  -24.9680 C.3   301  TYR301      0.1639
     91  C         10.6380  -32.3360  -23.8340 C.2   301  TYR301      0.2290
     92  O          9.8890  -31.3930  -24.1050 O.2   301  TYR301     -0.2864
     93  CB        10.3060  -34.1720  -25.5960 C.3   301  TYR301      0.0560
     94  CG         9.8650  -35.2960  -24.7030 C.ar  301  TYR301     -0.0198
     95  CD1        9.1690  -35.0390  -23.5460 C.ar  301  TYR301     -0.0009
     96  CD2       10.1170  -36.6200  -25.0390 C.ar  301  TYR301     -0.0009
     97  CE1        8.7530  -36.0610  -22.7320 C.ar  301  TYR301      0.0417
     98  CE2        9.7070  -37.6490  -24.2280 C.ar  301  TYR301      0.0417
     99  CZ         9.0210  -37.3580  -23.0660 C.ar  301  TYR301      0.1957
    100  OH         8.5910  -38.3590  -22.2200 O.3   301  TYR301     -0.2866
    101  N         11.8650  -28.8770  -24.2100 N.3   304  VAL304     -0.1231
    102  CA        11.3080  -28.2630  -25.3970 C.3   304  VAL304      0.1692
    103  C          9.9100  -27.7900  -25.0370 C.2   304  VAL304      0.2591
    104  O          9.5530  -26.6410  -25.2680 O.2   304  VAL304     -0.2718
    105  CB        11.2780  -29.2240  -26.6000 C.3   304  VAL304      0.0266
    106  CG1       10.5880  -28.5730  -27.7660 C.3   304  VAL304      0.0020
    107  CG2       12.6780  -29.5950  -26.9930 C.3   304  VAL304      0.0020
    108  N          9.1360  -28.6840  -24.4390 N.am  305  ILE305     -0.1980
    109  CA         7.7680  -28.3840  -24.0340 C.3   305  ILE305      0.1595
    110  C          7.6470  -27.2610  -22.9800 C.2   305  ILE305      0.2287
    111  O          7.0580  -26.2120  -23.2520 O.2   305  ILE305     -0.2864
    112  CB         7.0840  -29.6790  -23.5460 C.3   305  ILE305      0.0276
    113  CG1        6.9180  -30.6350  -24.7320 C.3   305  ILE305      0.0022
    114  CG2        5.7550  -29.3870  -22.8810 C.3   305  ILE305      0.0022
    115  CD1        5.9610  -31.7630  -24.4800 C.3   305  ILE305      0.0001
    116  N          9.0890  -23.5460  -25.4880 N.3   309  MET309     -0.1245
    117  CA         7.8230  -23.0810  -26.0410 C.3   309  MET309      0.1570
    118  C          7.2530  -21.9130  -25.2740 C.2   309  MET309      0.2261
    119  O          6.0630  -21.8610  -24.9820 O.2   309  MET309     -0.2867
    120  CB         6.8150  -24.2170  -26.1270 C.3   309  MET309      0.0387
    121  CG         6.9650  -25.0150  -27.4000 C.3   309  MET309      0.0595
    122  SD         5.7200  -26.2870  -27.4750 S.3   309  MET309     -0.1393
    123  CE         6.1020  -27.1800  -25.9660 C.3   309  MET309      0.0692
@<TRIPOS>BOND
     1    19    18    1
     2    20    18    1
     3    18    17    1
     4    36    34    1
     5    17    14    1
     6    35    34    1
     7     1     2    1
     8    34    33    1
     9    47    45    1
    10    14    13    1
    11    14    15    1
    12    44    45    2
    13    44    43    1
    14     7     9   ar
    15     7     6   ar
    16     2     5    1
    17     2     3    1
    18    45    46    1
    19    43    42    1
    20     9    11   ar
    21    72    74   ar
    22    72    70   ar
    23     5     6    1
    24    74    73   ar
    25    15    16    2
    26    15    21   am
    27     6     8   ar
    28    33    30    1
    29     3     4    2
    30    29    30    1
    31    42    41    1
    32    30    31    1
    33    11    12    1
    34    11    10   ar
    35    70    69   ar
    36   106   105    1
    37    21    22    1
    38    73    71   ar
    39   122   121    1
    40   122   123    1
    41   121   120    1
    42     8    10   ar
    43    63    61    1
    44    87    86    1
    45   107   105    1
    46    41    38    1
    47    69    71   ar
    48    69    68    1
    49   105   102    1
    50    27    26    1
    51    31    32    2
    52    80    79    1
    53    61    60    1
    54    22    23    1
    55    22    25    1
    56   120   117    1
    57   117   116    1
    58   117   118    1
    59    23    24    2
    60    86    88    1
    61    86    83    1
    62    38    39    1
    63    38    37    1
    64    79    81    1
    65    79    76    1
    66    93    90    1
    67    93    94    1
    68    68    65    1
    69   102   103    1
    70   102   101    1
    71    25    26    1
    72   118   119    2
    73   104   103    2
    74    26    28    1
    75    62    60    1
    76    60    57    1
    77    96    94   ar
    78    96    98   ar
    79   103   108   am
    80    90    89    1
    81    90    91    1
    82    40    39    2
    83    85    84    2
    84    39    48   am
    85   113   115    1
    86   113   112    1
    87    84    89   am
    88    84    83    1
    89    94    95   ar
    90    83    82    1
    91    78    77    2
    92   108   109    1
    93    57    56    1
    94    57    58    1
    95    54    53    1
    96    54    55    1
    97    76    77    1
    98    76    75    1
    99    65    66    1
   100    65    64    1
   101    98    99   ar
   102    48    49    1
   103    67    66    2
   104    92    91    2
   105   109   112    1
   106   109   110    1
   107    53    52    1
   108   112   114    1
   109    95    97   ar
   110    49    52    1
   111    49    50    1
   112    59    58    2
   113   111   110    2
   114    99    97   ar
   115    99   100    1
   116    50    51    2
