@<TRIPOS>MOLECULE
tmp/3caqA01.pdb
 125 124 0 0 0
SMALL
GASTEIGER

@<TRIPOS>ATOM
      1  N          6.7180  -24.3880   25.2260 N.3    25  TYR25      -0.1241
      2  CA         7.2580  -23.4710   26.2260 C.3    25  TYR25       0.1605
      3  C          8.7060  -23.8440   26.5250 C.2    25  TYR25       0.2264
      4  O          9.0590  -25.0230   26.5820 O.2    25  TYR25      -0.2867
      5  CB         6.4810  -23.4930   27.5460 C.3    25  TYR25       0.0534
      6  CG         7.0980  -22.5390   28.5540 C.ar   25  TYR25      -0.0201
      7  CD1        6.9660  -21.1530   28.4040 C.ar   25  TYR25      -0.0009
      8  CD2        7.8960  -23.0130   29.6000 C.ar   25  TYR25      -0.0009
      9  CE1        7.6140  -20.2690   29.2590 C.ar   25  TYR25       0.0417
     10  CE2        8.5520  -22.1340   30.4620 C.ar   25  TYR25       0.0417
     11  CZ         8.4070  -20.7650   30.2830 C.ar   25  TYR25       0.1957
     12  OH         9.0660  -19.8900   31.1140 O.3    25  TYR25      -0.2866
     13  N          2.8830  -15.3680   24.6800 N.3    56  ILE56      -0.1231
     14  CA         3.7440  -15.0410   25.8090 C.3    56  ILE56       0.1692
     15  C          4.9630  -15.9430   25.9630 C.2    56  ILE56       0.2592
     16  O          5.8480  -15.6610   26.7710 O.2    56  ILE56      -0.2718
     17  CB         2.9510  -15.0270   27.1320 C.3    56  ILE56       0.0266
     18  CG1        2.3750  -16.4120   27.4250 C.3    56  ILE56       0.0019
     19  CG2        1.8380  -14.0030   27.0480 C.3    56  ILE56       0.0020
     20  CD1        1.7140  -16.5120   28.7860 C.3    56  ILE56       0.0001
     21  N          5.0220  -17.0240   25.1920 N.am   57  TYR57      -0.1976
     22  CA         6.1790  -17.9170   25.2650 C.3    57  TYR57       0.1639
     23  C          7.3450  -17.2480   24.5200 C.2    57  TYR57       0.2290
     24  O          8.5020  -17.6590   24.6480 O.2    57  TYR57      -0.2864
     25  CB         5.8630  -19.2820   24.6320 C.3    57  TYR57       0.0560
     26  CG         4.8220  -20.1130   25.3590 C.ar   57  TYR57      -0.0198
     27  CD1        4.4080  -21.3460   24.8480 C.ar   57  TYR57      -0.0009
     28  CD2        4.2340  -19.6630   26.5450 C.ar   57  TYR57      -0.0009
     29  CE1        3.4330  -22.1080   25.4960 C.ar   57  TYR57       0.0417
     30  CE2        3.2560  -20.4180   27.1980 C.ar   57  TYR57       0.0417
     31  CZ         2.8610  -21.6340   26.6690 C.ar   57  TYR57       0.1957
     32  OH         1.8820  -22.3620   27.3080 O.3    57  TYR57      -0.2866
     33  N         -3.7440  -14.1910   26.8770 N.3    88  TRP88      -0.1241
     34  CA        -3.1700  -13.9740   28.2050 C.3    88  TRP88       0.1605
     35  C         -4.0360  -13.1510   29.1700 C.2    88  TRP88       0.2264
     36  O         -4.9610  -12.4410   28.7590 O.2    88  TRP88      -0.2867
     37  CB        -1.7740  -13.3430   28.0800 C.3    88  TRP88       0.0550
     38  CG        -1.0500  -13.1730   29.4030 C.ar   88  TRP88       0.0003
     39  CD1       -0.5020  -12.0160   29.8930 C.ar   88  TRP88       0.0946
     40  CD2       -0.8680  -14.1630   30.4240 C.ar   88  TRP88       0.0152
     41  NE1       -0.0040  -12.2230   31.1500 N.ar   88  TRP88      -0.2442
     42  CE2       -0.2130  -13.5300   31.5050 C.ar   88  TRP88       0.0810
     43  CE3       -1.1970  -15.5230   30.5320 C.ar   88  TRP88       0.0012
     44  CZ2        0.1200  -14.2080   32.6860 C.ar   88  TRP88       0.0191
     45  CZ3       -0.8660  -16.2010   31.7090 C.ar   88  TRP88       0.0001
     46  CH2       -0.2140  -15.5380   32.7700 C.ar   88  TRP88       0.0015
     47  N         -6.0500  -18.3420   28.6030 N.3   119  GLU119     -0.1231
     48  CA        -4.9010  -18.9190   29.3080 C.3   119  GLU119      0.1699
     49  C         -5.1020  -19.1800   30.8090 C.2   119  GLU119      0.2592
     50  O         -4.7180  -20.2310   31.3170 O.2   119  GLU119     -0.2718
     51  CB        -3.6840  -18.0210   29.0670 C.3   119  GLU119      0.0402
     52  CG        -2.3370  -18.6850   29.2830 C.3   119  GLU119      0.1161
     53  CD        -1.2770  -18.1580   28.3210 C.2   119  GLU119      0.3649
     54  OE1       -1.4440  -17.0400   27.7790 O.co2 119  GLU119     -0.2457
     55  OE2       -0.2700  -18.8630   28.1110 O.co2 119  GLU119     -0.2457
     56  N         -5.6800  -18.2100   31.5090 N.am  120  VAL120     -0.1980
     57  CA        -5.9750  -18.3220   32.9370 C.3   120  VAL120      0.1595
     58  C         -7.2780  -17.5750   33.1890 C.2   120  VAL120      0.2287
     59  O         -7.5950  -16.6140   32.4900 O.2   120  VAL120     -0.2864
     60  CB        -4.8910  -17.6650   33.8430 C.3   120  VAL120      0.0276
     61  CG1       -3.6770  -18.5840   33.9890 C.3   120  VAL120      0.0022
     62  CG2       -4.4820  -16.3290   33.2620 C.3   120  VAL120      0.0022
     63  N          3.7430   -9.2940   32.9150 N.3   131  TYR131     -0.1241
     64  CA         3.7150   -9.5480   34.3520 C.3   131  TYR131      0.1605
     65  C          3.7620   -8.2240   35.1210 C.2   131  TYR131      0.2264
     66  O          4.7490   -7.9060   35.7810 O.2   131  TYR131     -0.2867
     67  CB         4.8950  -10.4480   34.7370 C.3   131  TYR131      0.0534
     68  CG         4.8810  -11.7940   34.0340 C.ar  131  TYR131     -0.0201
     69  CD1        5.8860  -12.1470   33.1340 C.ar  131  TYR131     -0.0009
     70  CD2        3.8550  -12.7130   34.2660 C.ar  131  TYR131     -0.0009
     71  CE1        5.8700  -13.3850   32.4840 C.ar  131  TYR131      0.0417
     72  CE2        3.8290  -13.9450   33.6240 C.ar  131  TYR131      0.0417
     73  CZ         4.8360  -14.2770   32.7370 C.ar  131  TYR131      0.1957
     74  OH         4.8100  -15.5020   32.1130 O.3   131  TYR131     -0.2866
     75  N         -6.8220  -23.8300   32.8260 N.3   169  ASN169     -0.1240
     76  CA        -6.7100  -23.5730   34.2660 C.3   169  ASN169      0.1653
     77  C         -8.0470  -23.1600   34.9060 C.2   169  ASN169      0.2266
     78  O         -8.0700  -22.4070   35.8840 O.2   169  ASN169     -0.2867
     79  CB        -5.6610  -22.4870   34.5470 C.3   169  ASN169      0.1155
     80  CG        -4.2500  -22.9200   34.1930 C.2   169  ASN169      0.2627
     81  OD1       -3.6030  -22.3280   33.3240 O.2   169  ASN169     -0.2716
     82  ND2       -3.7610  -23.9500   34.8690 N.am  169  ASN169     -0.0877
     83  N         10.3790  -21.9650   39.6040 N.3   229  TRP229     -0.1241
     84  CA         8.9240  -21.8900   39.6740 C.3   229  TRP229      0.1605
     85  C          8.2210  -23.2300   39.8970 C.2   229  TRP229      0.2264
     86  O          7.0590  -23.2640   40.3060 O.2   229  TRP229     -0.2867
     87  CB         8.3860  -21.2540   38.3930 C.3   229  TRP229      0.0550
     88  CG         8.8100  -21.9880   37.1530 C.ar  229  TRP229      0.0003
     89  CD1       10.0140  -21.8960   36.5160 C.ar  229  TRP229      0.0946
     90  CD2        8.0490  -22.9670   36.4330 C.ar  229  TRP229      0.0152
     91  NE1       10.0510  -22.7560   35.4440 N.ar  229  TRP229     -0.2442
     92  CE2        8.8590  -23.4270   35.3700 C.ar  229  TRP229      0.0810
     93  CE3        6.7620  -23.5010   36.5830 C.ar  229  TRP229      0.0012
     94  CZ2        8.4230  -24.3990   34.4590 C.ar  229  TRP229      0.0191
     95  CZ3        6.3280  -24.4710   35.6760 C.ar  229  TRP229      0.0001
     96  CH2        7.1600  -24.9070   34.6280 C.ar  229  TRP229      0.0015
     97  N          2.7070  -27.4000   39.2870 N.3   308  VAL308     -0.1245
     98  CA         2.4910  -25.9960   38.9130 C.3   308  VAL308      0.1561
     99  C          1.3790  -25.4040   39.7700 C.2   308  VAL308      0.2260
    100  O          0.1920  -25.5690   39.4730 O.2   308  VAL308     -0.2867
    101  CB         2.1070  -25.8700   37.4160 C.3   308  VAL308      0.0252
    102  CG1        1.8600  -24.4070   37.0460 C.3   308  VAL308      0.0019
    103  CG2        3.2130  -26.4450   36.5550 C.3   308  VAL308      0.0019
    104  N          1.3880  -21.8980   40.9370 N.3   310  LEU310     -0.1245
    105  CA         1.1400  -20.4830   40.6760 C.3   310  LEU310      0.1561
    106  C          0.8030  -19.7720   41.9850 C.2   310  LEU310      0.2260
    107  O         -0.1310  -18.9660   42.0470 O.2   310  LEU310     -0.2867
    108  CB        -0.0300  -20.3240   39.7020 C.3   310  LEU310      0.0270
    109  CG         0.0800  -21.1110   38.3940 C.3   310  LEU310      0.0019
    110  CD1       -1.1450  -20.8300   37.5360 C.3   310  LEU310      0.0001
    111  CD2        1.3620  -20.7220   37.6580 C.3   310  LEU310      0.0001
    112  N          0.0120  -15.8970   42.6650 N.3   313  TRP313     -0.1241
    113  CA        -1.2850  -15.3120   42.3500 C.3   313  TRP313      0.1605
    114  C         -2.4340  -15.8990   43.1660 C.2   313  TRP313      0.2264
    115  O         -3.6020  -15.7360   42.8010 O.2   313  TRP313     -0.2867
    116  CB        -1.5910  -15.4910   40.8590 C.3   313  TRP313      0.0550
    117  CG        -0.5290  -14.9520   39.9460 C.ar  313  TRP313      0.0003
    118  CD1        0.1360  -13.7620   40.0680 C.ar  313  TRP313      0.0946
    119  CD2       -0.0390  -15.5640   38.7470 C.ar  313  TRP313      0.0152
    120  NE1        1.0060  -13.5990   39.0210 N.ar  313  TRP313     -0.2442
    121  CE2        0.9200  -14.6880   38.1940 C.ar  313  TRP313      0.0810
    122  CE3       -0.3190  -16.7690   38.0850 C.ar  313  TRP313      0.0012
    123  CZ2        1.6030  -14.9780   37.0030 C.ar  313  TRP313      0.0191
    124  CZ3        0.3590  -17.0580   36.9040 C.ar  313  TRP313      0.0001
    125  CH2        1.3100  -16.1640   36.3750 C.ar  313  TRP313      0.0015
@<TRIPOS>BOND
     1    23    24    2
     2    23    22    1
     3    25    22    1
     4    25    26    1
     5    13    14    1
     6    27    26   ar
     7    27    29   ar
     8    21    22    1
     9    21    15   am
    10     1     2    1
    11    26    28   ar
    12    29    31   ar
    13    14    15    1
    14    14    17    1
    15    15    16    2
    16     2     3    1
    17     2     5    1
    18     3     4    2
    19    28    30   ar
    20    31    30   ar
    21    31    32    1
    22    33    34    1
    23    19    17    1
    24    17    18    1
    25    18    20    1
    26     5     6    1
    27    54    53   ar
    28    37    34    1
    29    37    38    1
    30    55    53   ar
    31    34    35    1
    32    53    52    1
    33     7     6   ar
    34     7     9   ar
    35     6     8   ar
    36    47    48    1
    37    36    35    2
    38    51    52    1
    39    51    48    1
    40     9    11   ar
    41    48    49    1
    42    38    39   ar
    43    38    40   ar
    44     8    10   ar
    45    39    41   ar
    46    11    10   ar
    47    11    12    1
    48    40    43   ar
    49    40    42   ar
    50    43    45   ar
    51    49    50    2
    52    49    56   am
    53    41    42   ar
    54    42    44   ar
    55    56    57    1
    56    45    46   ar
    57    74    73    1
    58    71    73   ar
    59    71    69   ar
    60    59    58    2
    61    44    46   ar
    62    73    72   ar
    63    75    76    1
    64    63    64    1
    65    57    58    1
    66    57    60    1
    67    69    68   ar
    68    62    60    1
    69    81    80    2
    70    72    70   ar
    71    60    61    1
    72    68    70   ar
    73    68    67    1
    74    80    79    1
    75    80    82   am
    76    76    79    1
    77    76    77    1
    78    64    67    1
    79    64    65    1
    80    94    96   ar
    81    94    92   ar
    82    96    95   ar
    83    77    78    2
    84    65    66    2
    85    92    91   ar
    86    92    90   ar
    87    91    89   ar
    88    95    93   ar
    89   125   124   ar
    90   125   123   ar
    91    90    93   ar
    92    90    88   ar
    93    89    88   ar
    94   103   101    1
    95   124   122   ar
    96   123   121   ar
    97   102   101    1
    98    88    87    1
    99   101    98    1
   100   110   109    1
   101   111   109    1
   102   122   119   ar
   103   121   119   ar
   104   121   120   ar
   105    87    84    1
   106   109   108    1
   107   119   117   ar
   108    98    97    1
   109    98    99    1
   110   120   118   ar
   111   100    99    2
   112    83    84    1
   113    84    85    1
   114   108   105    1
   115    85    86    2
   116   117   118   ar
   117   117   116    1
   118   105   104    1
   119   105   106    1
   120   116   113    1
   121   106   107    2
   122   113   112    1
   123   113   114    1
   124   115   114    2
