@<TRIPOS>MOLECULE
tmp/3cavB01.pdb
 167 167 0 0 0
SMALL
GASTEIGER

@<TRIPOS>ATOM
      1  N         -5.3560   15.1650   -4.5930 N.3    25  TYR25      -0.1241
      2  CA        -6.3690   16.0910   -5.0960 C.3    25  TYR25       0.1605
      3  C         -6.0030   17.5210   -4.7160 C.2    25  TYR25       0.2264
      4  O         -5.6280   17.7940   -3.5730 O.2    25  TYR25      -0.2867
      5  CB        -7.7640   15.8150   -4.5350 C.3    25  TYR25       0.0534
      6  CG        -8.7600   16.8530   -5.0220 C.ar   25  TYR25      -0.0201
      7  CD1       -9.2530   16.8080   -6.3260 C.ar   25  TYR25      -0.0009
      8  CD2       -9.1330   17.9360   -4.2150 C.ar   25  TYR25      -0.0009
      9  CE1      -10.0840   17.8110   -6.8220 C.ar   25  TYR25       0.0417
     10  CE2       -9.9710   18.9520   -4.7080 C.ar   25  TYR25       0.0417
     11  CZ       -10.4380   18.8780   -6.0140 C.ar   25  TYR25       0.1957
     12  OH       -11.2530   19.8660   -6.5260 O.3    25  TYR25      -0.2866
     13  N        -10.1220   12.0660  -12.6190 N.3    56  ILE56      -0.1231
     14  CA       -10.8510   13.3260  -12.5240 C.3    56  ILE56       0.1692
     15  C        -10.1230   14.4190  -11.7390 C.2    56  ILE56       0.2592
     16  O        -10.5800   15.5620  -11.7190 O.2    56  ILE56      -0.2718
     17  CB       -12.2830   13.1400  -11.9280 C.3    56  ILE56       0.0266
     18  CG1      -12.2040   12.6470  -10.4800 C.3    56  ILE56       0.0019
     19  CG2      -13.0830   12.1760  -12.7960 C.3    56  ILE56       0.0020
     20  CD1      -13.5340   12.7220   -9.7330 C.3    56  ILE56       0.0001
     21  N         -9.0000   14.0880  -11.0950 N.am   57  TYR57      -0.1976
     22  CA        -8.2420   15.1100  -10.3550 C.3    57  TYR57       0.1639
     23  C         -7.4870   15.9630  -11.3740 C.2    57  TYR57       0.2290
     24  O         -6.8770   16.9750  -11.0300 O.2    57  TYR57      -0.2864
     25  CB        -7.2410   14.4820   -9.3750 C.3    57  TYR57       0.0560
     26  CG        -7.8560   13.7360   -8.2080 C.ar   57  TYR57      -0.0198
     27  CD1       -7.0470   13.0190   -7.3270 C.ar   57  TYR57      -0.0009
     28  CD2       -9.2390   13.7130   -7.9980 C.ar   57  TYR57      -0.0009
     29  CE1       -7.5860   12.2940   -6.2780 C.ar   57  TYR57       0.0417
     30  CE2       -9.7950   12.9820   -6.9320 C.ar   57  TYR57       0.0417
     31  CZ        -8.9520   12.2720   -6.0820 C.ar   57  TYR57       0.1957
     32  OH        -9.4600   11.5010   -5.0510 O.3    57  TYR57      -0.2866
     33  N        -14.8580    6.9230  -12.0970 N.3    88  TRP88      -0.1241
     34  CA       -15.8830    7.9470  -11.8430 C.3    88  TRP88       0.1605
     35  C        -17.3140    7.6090  -12.2920 C.2    88  TRP88       0.2264
     36  O        -17.5420    6.7470  -13.1510 O.2    88  TRP88      -0.2867
     37  CB       -15.4570    9.2860  -12.4630 C.3    88  TRP88       0.0550
     38  CG       -16.3940   10.4420  -12.1650 C.ar   88  TRP88       0.0003
     39  CD1      -17.0060   11.2570  -13.0800 C.ar   88  TRP88       0.0946
     40  CD2      -16.8120   10.9100  -10.8720 C.ar   88  TRP88       0.0152
     41  NE1      -17.7750   12.2010  -12.4390 N.ar   88  TRP88      -0.2442
     42  CE2      -17.6750   12.0120  -11.0840 C.ar   88  TRP88       0.0810
     43  CE3      -16.5410   10.5070   -9.5570 C.ar   88  TRP88       0.0012
     44  CZ2      -18.2700   12.7170  -10.0270 C.ar   88  TRP88       0.0191
     45  CZ3      -17.1330   11.2070   -8.5040 C.ar   88  TRP88       0.0001
     46  CH2      -17.9880   12.3010   -8.7480 C.ar   88  TRP88       0.0015
     47  N        -15.3080    4.9250   -7.5340 N.3   119  GLU119     -0.1231
     48  CA       -15.2230    6.2220   -6.8480 C.3   119  GLU119      0.1699
     49  C        -16.4070    6.6350   -5.9660 C.2   119  GLU119      0.2592
     50  O        -16.2150    7.0920   -4.8300 O.2   119  GLU119     -0.2718
     51  CB       -14.9250    7.3090   -7.8830 C.3   119  GLU119      0.0402
     52  CG       -14.3070    8.5800   -7.3160 C.3   119  GLU119      0.1161
     53  CD       -13.3600    9.2620   -8.3030 C.2   119  GLU119      0.3649
     54  OE1      -13.4590    8.9960   -9.5200 O.co2 119  GLU119     -0.2457
     55  OE2      -12.5180   10.0740   -7.8620 O.co2 119  GLU119     -0.2457
     56  N        -17.6170    6.5070   -6.5010 N.am  120  VAL120     -0.1980
     57  CA       -18.8480    6.8080   -5.7730 C.3   120  VAL120      0.1595
     58  C        -19.8960    5.8100   -6.2490 C.2   120  VAL120      0.2287
     59  O        -19.8840    5.3970   -7.4080 O.2   120  VAL120     -0.2864
     60  CB       -19.3710    8.2630   -6.0260 C.3   120  VAL120      0.0276
     61  CG1      -18.4860    9.2650   -5.3000 C.3   120  VAL120      0.0022
     62  CG2      -19.4040    8.5770   -7.5190 C.3   120  VAL120      0.0022
     63  N        -18.9180   16.3460  -14.9920 N.3   131  TYR131     -0.1241
     64  CA       -20.0260   16.8440  -14.1850 C.3   131  TYR131      0.1605
     65  C        -21.1470   17.3150  -15.1090 C.2   131  TYR131      0.2264
     66  O        -21.2520   18.5030  -15.4200 O.2   131  TYR131     -0.2867
     67  CB       -19.5510   17.9950  -13.2950 C.3   131  TYR131      0.0534
     68  CG       -18.2860   17.6740  -12.5290 C.ar  131  TYR131     -0.0201
     69  CD1      -17.0330   18.0060  -13.0450 C.ar  131  TYR131     -0.0009
     70  CD2      -18.3390   16.9990  -11.3090 C.ar  131  TYR131     -0.0009
     71  CE1      -15.8600   17.6720  -12.3630 C.ar  131  TYR131      0.0417
     72  CE2      -17.1760   16.6580  -10.6240 C.ar  131  TYR131      0.0417
     73  CZ       -15.9390   16.9970  -11.1550 C.ar  131  TYR131      0.1957
     74  OH       -14.7840   16.6620  -10.4810 O.3   131  TYR131     -0.2866
     75  N        -28.6130   18.4440  -12.2070 N.3   139  TRP139     -0.1241
     76  CA       -27.6620   17.3510  -12.4110 C.3   139  TRP139      0.1605
     77  C        -28.2970   16.1970  -13.1800 C.2   139  TRP139      0.2264
     78  O        -29.3340   15.6670  -12.7790 O.2   139  TRP139     -0.2867
     79  CB       -27.1410   16.8270  -11.0660 C.3   139  TRP139      0.0550
     80  CG       -26.2580   17.7900  -10.3370 C.ar  139  TRP139      0.0003
     81  CD1      -26.6510   18.7960   -9.4990 C.ar  139  TRP139      0.0946
     82  CD2      -24.8290   17.8670  -10.4150 C.ar  139  TRP139      0.0152
     83  NE1      -25.5540   19.4950   -9.0520 N.ar  139  TRP139     -0.2442
     84  CE2      -24.4230   18.9470   -9.5990 C.ar  139  TRP139      0.0810
     85  CE3      -23.8510   17.1300  -11.0980 C.ar  139  TRP139      0.0012
     86  CZ2      -23.0810   19.3080   -9.4470 C.ar  139  TRP139      0.0191
     87  CZ3      -22.5130   17.4890  -10.9480 C.ar  139  TRP139      0.0001
     88  CH2      -22.1420   18.5700  -10.1270 C.ar  139  TRP139      0.0015
     89  N        -16.7780    5.4350   -0.7150 N.3   169  ASN169     -0.1240
     90  CA       -18.0430    6.0890   -0.3660 C.3   169  ASN169      0.1653
     91  C        -19.2410    5.1380   -0.3810 C.2   169  ASN169      0.2266
     92  O        -20.3730    5.5670   -0.6100 O.2   169  ASN169     -0.2867
     93  CB       -18.3260    7.2740   -1.3000 C.3   169  ASN169      0.1155
     94  CG       -17.3500    8.4240   -1.1070 C.2   169  ASN169      0.2627
     95  OD1      -17.2620    9.0120   -0.0270 O.2   169  ASN169     -0.2716
     96  ND2      -16.6140    8.7520   -2.1590 N.am  169  ASN169     -0.0877
     97  N         -9.7060    8.8350    3.8100 N.3   218  TYR218     -0.1241
     98  CA        -9.4400   10.0080    2.9920 C.3   218  TYR218      0.1605
     99  C         -9.7150   11.2260    3.8640 C.2   218  TYR218      0.2264
    100  O        -10.3640   11.1030    4.9040 O.2   218  TYR218     -0.2867
    101  CB       -10.2600   10.0030    1.6880 C.3   218  TYR218      0.0534
    102  CG       -11.7610   10.2640    1.7330 C.ar  218  TYR218     -0.0201
    103  CD1      -12.2770   11.4850    2.1770 C.ar  218  TYR218     -0.0009
    104  CD2      -12.6500    9.3560    1.1430 C.ar  218  TYR218     -0.0009
    105  CE1      -13.6390   11.8050    2.0070 C.ar  218  TYR218      0.0417
    106  CE2      -14.0060    9.6620    0.9700 C.ar  218  TYR218      0.0417
    107  CZ       -14.4910   10.8880    1.3940 C.ar  218  TYR218      0.1957
    108  OH       -15.8050   11.2160    1.1420 O.3   218  TYR218     -0.2866
    109  N        -16.0630   26.2970   -0.6900 N.3   228  ILE228     -0.1231
    110  CA       -16.7250   26.0200   -1.9600 C.3   228  ILE228      0.1692
    111  C        -17.3890   24.6400   -1.9610 C.2   228  ILE228      0.2592
    112  O        -18.3390   24.4060   -2.7090 O.2   228  ILE228     -0.2718
    113  CB       -15.7170   26.1190   -3.1340 C.3   228  ILE228      0.0266
    114  CG1      -15.2990   27.5810   -3.3190 C.3   228  ILE228      0.0019
    115  CG2      -16.3270   25.5590   -4.4140 C.3   228  ILE228      0.0020
    116  CD1      -14.2240   27.7980   -4.3620 C.3   228  ILE228      0.0001
    117  N        -16.9030   23.7310   -1.1180 N.am  229  TRP229     -0.1976
    118  CA       -17.4790   22.3880   -1.0640 C.3   229  TRP229      0.1640
    119  C        -17.3610   21.6780    0.2790 C.2   229  TRP229      0.2290
    120  O        -17.8710   20.5680    0.4400 O.2   229  TRP229     -0.2864
    121  CB       -16.8480   21.4950   -2.1360 C.3   229  TRP229      0.0576
    122  CG       -15.3740   21.2400   -1.9390 C.ar  229  TRP229      0.0006
    123  CD1      -14.3390   22.0380   -2.3430 C.ar  229  TRP229      0.0946
    124  CD2      -14.7790   20.1020   -1.3050 C.ar  229  TRP229      0.0152
    125  NE1      -13.1360   21.4630   -2.0040 N.ar  229  TRP229     -0.2442
    126  CE2      -13.3770   20.2750   -1.3650 C.ar  229  TRP229      0.0810
    127  CE3      -15.2930   18.9520   -0.6920 C.ar  229  TRP229      0.0012
    128  CZ2      -12.4820   19.3380   -0.8350 C.ar  229  TRP229      0.0191
    129  CZ3      -14.4020   18.0200   -0.1640 C.ar  229  TRP229      0.0001
    130  CH2      -13.0110   18.2210   -0.2400 C.ar  229  TRP229      0.0015
    131  N        -17.2080   16.1510    4.4620 N.3   308  VAL308     -0.1245
    132  CA       -17.5890   15.9010    3.0740 C.3   308  VAL308      0.1561
    133  C        -18.9980   15.3110    2.9810 C.2   308  VAL308      0.2260
    134  O        -19.1830   14.0930    3.0840 O.2   308  VAL308     -0.2867
    135  CB       -16.5830   14.9420    2.3890 C.3   308  VAL308      0.0252
    136  CG1      -16.9290   14.7850    0.9120 C.3   308  VAL308      0.0019
    137  CG2      -15.1630   15.4810    2.5450 C.3   308  VAL308      0.0019
    138  N        -21.4130   16.3760    0.3210 N.3   310  LEU310     -0.1245
    139  CA       -21.8460   16.2700   -1.0750 C.3   310  LEU310      0.1561
    140  C        -23.3680   16.3940   -1.1850 C.2   310  LEU310      0.2260
    141  O        -24.0110   15.6310   -1.9080 O.2   310  LEU310     -0.2867
    142  CB       -21.4080   14.9200   -1.6490 C.3   310  LEU310      0.0270
    143  CG       -19.9520   14.5250   -1.3850 C.3   310  LEU310      0.0019
    144  CD1      -19.7150   13.1090   -1.8650 C.3   310  LEU310      0.0001
    145  CD2      -19.0200   15.5100   -2.0770 C.3   310  LEU310      0.0001
    146  N        -25.3040   18.3190   -2.7990 N.3   312  MET312     -0.1230
    147  CA       -25.9080   18.5460   -4.1110 C.3   312  MET312      0.1702
    148  C        -26.3290   17.2650   -4.8280 C.2   312  MET312      0.2592
    149  O        -27.0390   17.3260   -5.8360 O.2   312  MET312     -0.2718
    150  CB       -24.9820   19.3670   -5.0240 C.3   312  MET312      0.0401
    151  CG       -23.6490   18.7290   -5.3920 C.3   312  MET312      0.0596
    152  SD       -22.3780   18.9290   -4.1260 S.3   312  MET312     -0.1393
    153  CE       -21.5090   17.3780   -4.2860 C.3   312  MET312      0.0692
    154  N        -25.9050   16.1140   -4.3110 N.am  313  TRP313     -0.1976
    155  CA       -26.2610   14.8270   -4.9140 C.3   313  TRP313      0.1640
    156  C        -27.1200   13.9710   -3.9830 C.2   313  TRP313      0.2290
    157  O        -27.3240   12.7850   -4.2310 O.2   313  TRP313     -0.2864
    158  CB       -24.9940   14.0490   -5.3060 C.3   313  TRP313      0.0576
    159  CG       -24.1410   14.7730   -6.3070 C.ar  313  TRP313      0.0006
    160  CD1      -24.5790   15.5500   -7.3430 C.ar  313  TRP313      0.0946
    161  CD2      -22.7080   14.7780   -6.3810 C.ar  313  TRP313      0.0152
    162  NE1      -23.5120   16.0400   -8.0540 N.ar  313  TRP313     -0.2442
    163  CE2      -22.3510   15.5820   -7.4870 C.ar  313  TRP313      0.0810
    164  CE3      -21.6930   14.1830   -5.6220 C.ar  313  TRP313      0.0012
    165  CZ2      -21.0200   15.8060   -7.8540 C.ar  313  TRP313      0.0191
    166  CZ3      -20.3650   14.4060   -5.9870 C.ar  313  TRP313      0.0001
    167  CH2      -20.0430   15.2110   -7.0950 C.ar  313  TRP313      0.0015
@<TRIPOS>BOND
     1    66    65    2
     2    65    64    1
     3    63    64    1
     4    64    67    1
     5    67    68    1
     6    77    78    2
     7    77    76    1
     8    36    35    2
     9    39    41   ar
    10    39    38   ar
    11    69    68   ar
    12    69    71   ar
    13    19    17    1
    14    13    14    1
    15    68    70   ar
    16    14    17    1
    17    14    15    1
    18    37    38    1
    19    37    34    1
    20    41    42   ar
    21    76    75    1
    22    76    79    1
    23    71    73   ar
    24    35    34    1
    25    38    40   ar
    26    33    34    1
    27    17    18    1
    28    15    16    2
    29    15    21   am
    30    23    24    2
    31    23    22    1
    32    70    72   ar
    33    73    72   ar
    34    73    74    1
    35    85    87   ar
    36    85    82   ar
    37    21    22    1
    38    42    40   ar
    39    42    44   ar
    40    79    80    1
    41    87    88   ar
    42    40    43   ar
    43    18    20    1
    44    82    80   ar
    45    82    84   ar
    46    22    25    1
    47    80    81   ar
    48    88    86   ar
    49    44    46   ar
    50    84    86   ar
    51    84    83   ar
    52    43    45   ar
    53    54    53   ar
    54    81    83   ar
    55    25    26    1
    56    46    45   ar
    57    53    55   ar
    58    53    52    1
    59    26    28   ar
    60    26    27   ar
    61   162   163   ar
    62   162   160   ar
    63    28    30   ar
    64    51    52    1
    65    51    48    1
    66   165   163   ar
    67   165   167   ar
    68    47    48    1
    69    62    60    1
    70   163   161   ar
    71    59    58    2
    72   160   159   ar
    73    27    29   ar
    74   167   166   ar
    75    30    31   ar
    76    48    49    1
    77     9     7   ar
    78     9    11   ar
    79    12    11    1
    80    56    49   am
    81    56    57    1
    82   161   159   ar
    83   161   164   ar
    84     7     6   ar
    85   159   158    1
    86    29    31   ar
    87    58    57    1
    88    31    32    1
    89    60    57    1
    90    60    61    1
    91    11    10   ar
    92   166   164   ar
    93    49    50    2
    94   149   148    2
    95   151   150    1
    96   151   152    1
    97   158   155    1
    98     2     3    1
    99     2     1    1
   100     2     5    1
   101   150   147    1
   102     6     5    1
   103     6     8   ar
   104   155   154    1
   105   155   156    1
   106   148   154   am
   107   148   147    1
   108     3     4    2
   109    10     8   ar
   110   115   113    1
   111   116   114    1
   112   153   152    1
   113   157   156    2
   114   147   146    1
   115   114   113    1
   116   113   110    1
   117   112   111    2
   118   123   125   ar
   119   123   122   ar
   120    96    94   am
   121   121   122    1
   122   121   118    1
   123   145   143    1
   124   125   126   ar
   125   111   110    1
   126   111   117   am
   127   110   109    1
   128   122   124   ar
   129   141   140    2
   130   144   143    1
   131   142   143    1
   132   142   139    1
   133   126   124   ar
   134   126   128   ar
   135   124   127   ar
   136    93    94    1
   137    93    90    1
   138   140   139    1
   139   117   118    1
   140    94    95    2
   141   139   138    1
   142   118   119    1
   143   128   130   ar
   144    89    90    1
   145   127   129   ar
   146    92    91    2
   147    91    90    1
   148   130   129   ar
   149   119   120    2
   150   136   135    1
   151   106   104   ar
   152   106   107   ar
   153   108   107    1
   154   104   102   ar
   155   107   105   ar
   156   101   102    1
   157   101    98    1
   158   102   103   ar
   159   105   103   ar
   160   135   137    1
   161   135   132    1
   162   133   132    1
   163   133   134    2
   164    98    97    1
   165    98    99    1
   166   132   131    1
   167    99   100    2
