@<TRIPOS>MOLECULE
tmp/3cb0A00.pdb
 173 167 0 0 0
SMALL
GASTEIGER

@<TRIPOS>ATOM
      1  N          7.9910   86.7610   21.7800 N.3    23  VAL23      -0.1245
      2  CA         6.8450   87.5820   22.1790 C.3    23  VAL23       0.1561
      3  C          6.7830   88.8680   21.3640 C.2    23  VAL23       0.2260
      4  O          7.7680   89.6200   21.2880 O.2    23  VAL23      -0.2867
      5  CB         6.8460   87.8890   23.6950 C.3    23  VAL23       0.0252
      6  CG1        5.5680   88.6210   24.0910 C.3    23  VAL23       0.0019
      7  CG2        6.9800   86.5880   24.4990 C.3    23  VAL23       0.0019
      8  N         -5.4460   99.7830   18.8570 N.3    35  ARG35      -0.1231
      9  CA        -5.4530   98.5770   19.6840 C.3    35  ARG35       0.1694
     10  C         -4.1030   97.8640   19.6080 C.2    35  ARG35       0.2593
     11  O         -3.4470   97.8730   18.5660 O.2    35  ARG35      -0.2718
     12  CB        -6.5780   97.6320   19.2390 C.3    35  ARG35       0.0321
     13  CG        -6.6580   96.3140   20.0130 C.3    35  ARG35       0.0489
     14  CD        -7.9120   95.5320   19.6520 C.3    35  ARG35       0.2205
     15  NE        -7.9010   94.1780   20.2090 N.pl3  35  ARG35      -0.0865
     16  CZ        -8.1800   93.8730   21.4760 C.cat  35  ARG35       0.5346
     17  NH1       -8.5100   94.8220   22.3500 N.pl3  35  ARG35       0.1354
     18  NH2       -8.1370   92.6070   21.8720 N.pl3  35  ARG35       0.1354
     19  N         -3.7020   97.2480   20.7180 N.am   36  GLY36      -0.1942
     20  CA        -2.5200   96.3860   20.7520 C.3    36  GLY36       0.2014
     21  C         -2.7940   95.1200   21.5400 C.2    36  GLY36       0.2639
     22  O         -3.6800   95.0890   22.3980 O.2    36  GLY36      -0.2714
     23  N         -2.0490   94.0610   21.2380 N.am   37  LEU37      -0.1963
     24  CA        -2.1320   92.8480   22.0420 C.3    37  LEU37       0.1728
     25  C         -0.8400   92.0540   21.9670 C.2    37  LEU37       0.2617
     26  O         -0.1370   92.0660   20.9500 O.2    37  LEU37      -0.2715
     27  CB        -3.3450   91.9850   21.6570 C.3    37  LEU37       0.0311
     28  CG        -3.3150   91.2020   20.3440 C.3    37  LEU37       0.0022
     29  CD1       -4.1790   89.9430   20.4000 C.3    37  LEU37       0.0001
     30  CD2       -3.7460   92.0700   19.1910 C.3    37  LEU37       0.0001
     31  N         -0.5320   91.3830   23.0680 N.am   38  THR38      -0.1937
     32  CA         0.6080   90.4850   23.1540 C.3    38  THR38       0.2028
     33  C          0.2790   89.2110   22.3980 C.2    38  THR38       0.2642
     34  O         -0.8100   88.6550   22.5420 O.2    38  THR38      -0.2714
     35  CB         0.9120   90.1840   24.6250 C.3    38  THR38       0.1808
     36  OG1        1.1910   91.4210   25.2860 O.3    38  THR38      -0.2208
     37  CG2        2.1030   89.2380   24.7730 C.3    38  THR38       0.0379
     38  N          1.2350   88.7540   21.5920 N.am   39  LEU39      -0.1963
     39  CA         0.9790   87.7220   20.6020 C.3    39  LEU39       0.1728
     40  C          2.2300   86.8990   20.3260 C.2    39  LEU39       0.2617
     41  O          3.3260   87.4520   20.1980 O.2    39  LEU39      -0.2715
     42  CB         0.4740   88.3900   19.3080 C.3    39  LEU39       0.0311
     43  CG         0.0420   87.5270   18.1270 C.3    39  LEU39       0.0022
     44  CD1       -1.1770   88.1070   17.4230 C.3    39  LEU39       0.0001
     45  CD2        1.1910   87.3290   17.1650 C.3    39  LEU39       0.0001
     46  N          2.0570   85.5800   20.2340 N.am   40  THR40      -0.1937
     47  CA         3.1390   84.6920   19.7930 C.3    40  THR40       0.2028
     48  C          2.8110   83.9070   18.5240 C.2    40  THR40       0.2642
     49  O          3.7190   83.3810   17.8840 O.2    40  THR40      -0.2714
     50  CB         3.5750   83.6980   20.8880 C.3    40  THR40       0.1808
     51  OG1        2.4390   82.9570   21.3430 O.3    40  THR40      -0.2208
     52  CG2        4.2260   84.4280   22.0650 C.3    40  THR40       0.0379
     53  N          1.5260   83.8200   18.1740 N.am   41  ALA41      -0.1977
     54  CA         1.1130   83.0910   16.9650 C.3    41  ALA41       0.1597
     55  C          1.2680   83.9500   15.7060 C.2    41  ALA41       0.2287
     56  O          0.2960   84.4870   15.1610 O.2    41  ALA41      -0.2864
     57  CB        -0.3140   82.5680   17.0970 C.3    41  ALA41       0.0319
     58  N         -2.1840   85.4410   14.0250 N.3    55  CYS55      -0.1221
     59  CA        -3.4240   84.7520   14.3800 C.3    55  CYS55       0.1808
     60  C         -4.0760   85.4540   15.5630 C.2    55  CYS55       0.2601
     61  O         -3.4770   85.5400   16.6450 O.2    55  CYS55      -0.2717
     62  CB        -3.1390   83.2900   14.7230 C.3    55  CYS55       0.0970
     63  SG        -2.3310   82.3850   13.3930 S.3    55  CYS55      -0.0800
     64  N         -5.3010   85.9370   15.3530 N.am   56  LEU56      -0.1965
     65  CA        -6.0430   86.6850   16.3740 C.3    56  LEU56       0.1728
     66  C         -7.2860   85.9430   16.8440 C.2    56  LEU56       0.2616
     67  O         -8.1070   85.5250   16.0320 O.2    56  LEU56      -0.2715
     68  CB        -6.4680   88.0570   15.8370 C.3    56  LEU56       0.0311
     69  CG        -5.3790   89.0150   15.3510 C.3    56  LEU56       0.0022
     70  CD1       -6.0090   90.2030   14.6350 C.3    56  LEU56       0.0001
     71  CD2       -4.5070   89.4840   16.5060 C.3    56  LEU56       0.0001
     72  N         -7.4250   85.8040   18.1620 N.am   57  GLN57      -0.1977
     73  CA        -8.6090   85.1660   18.7460 C.3    57  GLN57       0.1601
     74  C         -9.8950   85.8540   18.2920 C.2    57  GLN57       0.2287
     75  O        -10.0150   87.0750   18.3780 O.2    57  GLN57      -0.2864
     76  CB        -8.5340   85.1900   20.2740 C.3    57  GLN57       0.0394
     77  CG        -7.4680   84.2930   20.8740 C.3    57  GLN57       0.0908
     78  CD        -7.5500   84.2520   22.3830 C.2    57  GLN57       0.2608
     79  OE1       -8.5140   83.7300   22.9480 O.2    57  GLN57      -0.2717
     80  NE2       -6.5480   84.8170   23.0490 N.am   57  GLN57      -0.0878
     81  N        -12.3710   87.5610   21.2260 N.3    60  HIS60      -0.1241
     82  CA       -12.2030   88.9650   21.5650 C.3    60  HIS60       0.1621
     83  C        -12.6100   89.7960   20.3490 C.2    60  HIS60       0.2264
     84  O        -11.8180   89.9930   19.4240 O.2    60  HIS60      -0.2867
     85  CB       -10.7640   89.2420   22.0070 C.3    60  HIS60       0.0745
     86  CG       -10.3970   88.5840   23.3020 C.ar   60  HIS60       0.0817
     87  ND1       -9.6860   87.4050   23.3640 N.ar   60  HIS60      -0.2268
     88  CD2      -10.6590   88.9330   24.5840 C.ar   60  HIS60       0.1154
     89  CE1       -9.5190   87.0590   24.6280 C.ar   60  HIS60       0.1986
     90  NE2      -10.0980   87.9700   25.3890 N.ar   60  HIS60      -0.2212
     91  N        -10.7410   92.4680   18.2960 N.3    63  ASN63      -0.1240
     92  CA        -9.7290   92.1260   17.2990 C.3    63  ASN63       0.1653
     93  C        -10.1610   92.4460   15.8620 C.2    63  ASN63       0.2266
     94  O         -9.3290   92.4830   14.9560 O.2    63  ASN63      -0.2867
     95  CB        -9.2640   90.6730   17.4560 C.3    63  ASN63       0.1155
     96  CG        -8.4190   90.4650   18.7080 C.2    63  ASN63       0.2627
     97  OD1       -7.7550   91.3870   19.1890 O.2    63  ASN63      -0.2716
     98  ND2       -8.4320   89.2510   19.2320 N.am   63  ASN63      -0.0877
     99  N         -0.1950   94.3430   27.6530 N.3    88  PHE88      -0.1227
    100  CA        -0.8920   94.0070   26.4280 C.3    88  PHE88       0.1736
    101  C         -1.4170   92.5740   26.3400 C.2    88  PHE88       0.2596
    102  O         -2.0470   92.2000   25.3470 O.2    88  PHE88      -0.2718
    103  CB        -0.0600   94.4250   25.2130 C.3    88  PHE88       0.0547
    104  CG        -0.1410   95.8950   24.9250 C.ar   88  PHE88      -0.0202
    105  CD1       -1.2520   96.4190   24.2680 C.ar   88  PHE88      -0.0042
    106  CD2        0.8730   96.7520   25.3290 C.ar   88  PHE88      -0.0042
    107  CE1       -1.3500   97.7760   24.0130 C.ar   88  PHE88      -0.0003
    108  CE2        0.7900   98.1230   25.0690 C.ar   88  PHE88      -0.0003
    109  CZ        -0.3220   98.6310   24.4080 C.ar   88  PHE88      -0.0000
    110  N         -1.1960   91.7890   27.3960 N.am   89  SER89      -0.1938
    111  CA        -1.8370   90.4780   27.5150 C.3    89  SER89       0.2055
    112  C         -3.0860   90.5240   28.4110 C.2    89  SER89       0.2643
    113  O         -3.7730   89.5070   28.5770 O.2    89  SER89      -0.2714
    114  CB        -0.8550   89.4300   28.0370 C.3    89  SER89       0.2130
    115  OG        -0.6750   89.5440   29.4410 O.3    89  SER89      -0.2179
    116  N         -3.3650   91.6950   28.9840 N.am   90  GLY90      -0.1954
    117  CA        -4.5250   91.8880   29.8660 C.3    90  GLY90       0.1869
    118  C         -4.2650   91.4990   31.3140 C.2    90  GLY90       0.2309
    119  O         -5.1920   91.4590   32.1320 O.2    90  GLY90      -0.2863
    120  N         -7.0400  100.2660   26.7720 N.3    96  GLN96      -0.1245
    121  CA        -6.0510  100.2750   25.7020 C.3    96  GLN96       0.1566
    122  C         -5.1630  101.5220   25.7590 C.2    96  GLN96       0.2260
    123  O         -3.9400  101.4190   25.6880 O.2    96  GLN96      -0.2867
    124  CB        -6.7330  100.1220   24.3390 C.3    96  GLN96       0.0367
    125  CG        -7.2120   98.7010   24.0570 C.3    96  GLN96       0.0905
    126  CD        -6.0700   97.7690   23.6760 C.2    96  GLN96       0.2608
    127  OE1       -5.1590   98.1590   22.9520 O.2    96  GLN96      -0.2717
    128  NE2       -6.1210   96.5300   24.1620 N.am   96  GLN96      -0.0878
    129  N         -2.6350  101.2480   28.4700 N.3    99  ARG99      -0.1245
    130  CA        -1.6010  100.2800   28.1070 C.3    99  ARG99       0.1563
    131  C         -0.5390  100.9110   27.2030 C.2    99  ARG99       0.2260
    132  O          0.6570  100.7360   27.4250 O.2    99  ARG99      -0.2867
    133  CB        -2.2250   99.0410   27.4550 C.3    99  ARG99       0.0307
    134  CG        -3.0820   98.2270   28.4160 C.3    99  ARG99       0.0489
    135  CD        -3.8600   97.1260   27.7210 C.3    99  ARG99       0.2205
    136  NE        -4.8660   96.5560   28.6190 N.pl3  99  ARG99      -0.0865
    137  CZ        -5.5500   95.4350   28.3980 C.cat  99  ARG99       0.5346
    138  NH1       -5.3390   94.7060   27.3040 N.pl3  99  ARG99       0.1354
    139  NH2       -6.4430   95.0250   29.2940 N.pl3  99  ARG99       0.1354
    140  N         -9.7460   81.4120   15.3870 N.3   135  HIS135     -0.1241
    141  CA        -8.8890   82.5650   15.1110 C.3   135  HIS135      0.1621
    142  C         -9.1030   83.1450   13.7250 C.2   135  HIS135      0.2264
    143  O         -9.4380   82.4250   12.7800 O.2   135  HIS135     -0.2867
    144  CB        -7.4090   82.1700   15.2230 C.3   135  HIS135      0.0745
    145  CG        -6.9170   82.0110   16.6280 C.ar  135  HIS135      0.0817
    146  ND1       -7.3820   81.0280   17.4750 N.ar  135  HIS135     -0.2268
    147  CD2       -5.9790   82.6960   17.3240 C.ar  135  HIS135      0.1154
    148  CE1       -6.7600   81.1220   18.6370 C.ar  135  HIS135      0.1986
    149  NE2       -5.9010   82.1230   18.5710 N.ar  135  HIS135     -0.2212
    150  N          8.3850   83.3030   25.2120 N.3   156  TYR156     -0.1241
    151  CA         7.4570   82.5500   26.0530 C.3   156  TYR156      0.1605
    152  C          7.6230   81.0560   25.7940 C.2   156  TYR156      0.2264
    153  O          7.6160   80.6130   24.6410 O.2   156  TYR156     -0.2867
    154  CB         6.0140   82.9830   25.8060 C.3   156  TYR156      0.0534
    155  CG         5.0800   82.6420   26.9450 C.ar  156  TYR156     -0.0201
    156  CD1        5.0270   83.4460   28.0820 C.ar  156  TYR156     -0.0009
    157  CD2        4.2490   81.5220   26.8890 C.ar  156  TYR156     -0.0009
    158  CE1        4.1770   83.1500   29.1330 C.ar  156  TYR156      0.0417
    159  CE2        3.3810   81.2150   27.9440 C.ar  156  TYR156      0.0417
    160  CZ         3.3560   82.0410   29.0620 C.ar  156  TYR156      0.1957
    161  OH         2.5200   81.7670   30.1250 O.3   156  TYR156     -0.2866
    162  N          7.8540   83.5020   30.9610 N.3   161  TYR161     -0.1241
    163  CA         8.6890   84.3330   30.1080 C.3   161  TYR161      0.1605
    164  C         10.1690   84.1010   30.3830 C.2   161  TYR161      0.2264
    165  O         10.5730   83.8480   31.5270 O.2   161  TYR161     -0.2867
    166  CB         8.3810   85.8080   30.3250 C.3   161  TYR161      0.0534
    167  CG         7.0670   86.2960   29.7520 C.ar  161  TYR161     -0.0201
    168  CD1        7.0190   86.9100   28.4980 C.ar  161  TYR161     -0.0009
    169  CD2        5.8830   86.1900   30.4800 C.ar  161  TYR161     -0.0009
    170  CE1        5.8150   87.3860   27.9780 C.ar  161  TYR161      0.0417
    171  CE2        4.6780   86.6590   29.9700 C.ar  161  TYR161      0.0417
    172  CZ         4.6520   87.2600   28.7200 C.ar  161  TYR161      0.1957
    173  OH         3.4630   87.7380   28.2120 O.3   161  TYR161     -0.2866
@<TRIPOS>BOND
     1   143   142    2
     2    63    62    1
     3   142   141    1
     4    58    59    1
     5    59    62    1
     6    59    60    1
     7    70    69    1
     8    94    93    2
     9   141   144    1
    10   141   140    1
    11    56    55    2
    12   144   145    1
    13    69    68    1
    14    69    71    1
    15    64    60   am
    16    64    65    1
    17    60    61    2
    18    55    54    1
    19    68    65    1
    20    93    92    1
    21    67    66    2
    22    65    66    1
    23   145   147   ar
    24   145   146   ar
    25    66    72   am
    26    54    57    1
    27    54    53    1
    28    45    43    1
    29    92    95    1
    30    92    91    1
    31   147   149   ar
    32    44    43    1
    33    95    96    1
    34   146   148   ar
    35    49    48    2
    36    43    42    1
    37    72    73    1
    38    53    48   am
    39    74    75    2
    40    74    73    1
    41    48    47    1
    42    11    10    2
    43   149   148   ar
    44    96    97    2
    45    96    98   am
    46    73    76    1
    47     8     9    1
    48    30    28    1
    49    12     9    1
    50    12    13    1
    51    42    39    1
    52    84    83    2
    53    10     9    1
    54    10    19   am
    55    14    13    1
    56    14    15    1
    57    47    46    1
    58    47    50    1
    59    41    40    2
    60    15    16    2
    61    46    40   am
    62    76    77    1
    63    40    39    1
    64    28    29    1
    65    28    27    1
    66    83    82    1
    67    39    38    1
    68    19    20    1
    69    20    21    1
    70    77    78    1
    71    50    51    1
    72    50    52    1
    73    26    25    2
    74    81    82    1
    75    23    21   am
    76    23    24    1
    77     4     3    2
    78     3     2    1
    79    16    18    1
    80    16    17    1
    81    21    22    2
    82    82    85    1
    83    38    33   am
    84    27    24    1
    85     1     2    1
    86    25    24    1
    87    25    31   am
    88    85    86    1
    89     2     5    1
    90    78    79    2
    91    78    80   am
    92    33    34    2
    93    33    32    1
    94   127   126    2
    95    31    32    1
    96    32    35    1
    97    86    87   ar
    98    86    88   ar
    99    87    89   ar
   100   126   125    1
   101   126   128   am
   102     5     6    1
   103     5     7    1
   104   107   105   ar
   105   107   109   ar
   106   125   124    1
   107   105   104   ar
   108   124   121    1
   109   109   108   ar
   110    88    90   ar
   111    35    37    1
   112    35    36    1
   113    89    90   ar
   114   153   152    2
   115   104   103    1
   116   104   106   ar
   117   108   106   ar
   118   150   151    1
   119   103   100    1
   120   102   101    2
   121   123   122    2
   122   121   122    1
   123   121   120    1
   124   152   151    1
   125   154   151    1
   126   154   155    1
   127   101   100    1
   128   101   110   am
   129   100    99    1
   130   157   155   ar
   131   157   159   ar
   132   155   156   ar
   133   131   132    2
   134   131   130    1
   135   138   137    1
   136   110   111    1
   137   133   130    1
   138   133   134    1
   139   111   114    1
   140   111   112    1
   141   135   134    1
   142   135   136    1
   143   159   160   ar
   144   170   168   ar
   145   170   172   ar
   146   114   115    1
   147   156   158   ar
   148   130   129    1
   149   173   172    1
   150   137   136    2
   151   137   139    1
   152   112   113    2
   153   112   116   am
   154   168   167   ar
   155   172   171   ar
   156   116   117    1
   157   160   158   ar
   158   160   161    1
   159   167   166    1
   160   167   169   ar
   161   117   118    1
   162   171   169   ar
   163   163   166    1
   164   163   164    1
   165   163   162    1
   166   164   165    2
   167   118   119    2
