@<TRIPOS>MOLECULE
tmp/3cb2A00.pdb
 191 179 0 0 0
SMALL
GASTEIGER

@<TRIPOS>ATOM
      1  N         10.0500   19.7550   12.5630 N.3    10  GLY10      -0.1210
      2  CA        10.6890   19.1310   13.7130 C.3    10  GLY10       0.1956
      3  C         11.5960   20.0920   14.4460 C.2    10  GLY10       0.2612
      4  O         11.6680   21.2740   14.0970 O.2    10  GLY10      -0.2717
      5  N         12.2950   19.5760   15.4560 N.am   11  GLN11      -0.1965
      6  CA        13.2400   20.3760   16.2360 C.3    11  GLN11       0.1733
      7  C         14.3600   20.9290   15.3610 C.2    11  GLN11       0.2616
      8  O         14.5720   22.1410   15.3170 O.2    11  GLN11      -0.2715
      9  CB        13.8370   19.5780   17.4070 C.3    11  GLN11       0.0408
     10  CG        15.0140   20.3070   18.0780 C.3    11  GLN11       0.0908
     11  CD        15.6230   19.5570   19.2500 C.2    11  GLN11       0.2608
     12  OE1       14.9450   19.2780   20.2420 O.2    11  GLN11      -0.2717
     13  NE2       16.9180   19.2520   19.1530 N.am   11  GLN11      -0.0878
     14  N         15.0770   20.0460   14.6700 N.am   12  CYS12      -0.1954
     15  CA        16.2160   20.4880   13.8790 C.3    12  CYS12       0.1843
     16  C         15.8020   21.4910   12.7970 C.2    12  CYS12       0.2626
     17  O         16.3240   22.6090   12.7610 O.2    12  CYS12      -0.2714
     18  CB        16.9740   19.3110   13.2770 C.3    12  CYS12       0.0997
     19  SG        18.3200   19.8350   12.2030 S.3    12  CYS12      -0.0797
     20  N         14.8610   21.0920   11.9370 N.am   13  GLY13      -0.1954
     21  CA        14.3700   21.9480   10.8520 C.3    13  GLY13       0.1869
     22  C         13.9470   23.3390   11.2960 C.2    13  GLY13       0.2309
     23  O         14.3270   24.3400   10.6830 O.2    13  GLY13      -0.2863
     24  N         14.8520   24.7380   14.2450 N.3    15  GLN15      -0.1231
     25  CA        16.0140   25.4150   14.8230 C.3    15  GLN15       0.1698
     26  C         16.9480   26.0080   13.7650 C.2    15  GLN15       0.2592
     27  O         17.3340   27.1810   13.8670 O.2    15  GLN15      -0.2718
     28  CB        16.7450   24.5300   15.8530 C.3    15  GLN15       0.0381
     29  CG        16.1460   24.6870   17.2700 C.3    15  GLN15       0.0905
     30  CD        16.6770   23.7270   18.3370 C.2    15  GLN15       0.2608
     31  OE1       16.1430   23.7000   19.4500 O.2    15  GLN15      -0.2717
     32  NE2       17.7180   22.9440   18.0170 N.am   15  GLN15      -0.0878
     33  N         17.2830   25.2260   12.7380 N.am   16  ILE16      -0.1980
     34  CA        18.1340   25.7340   11.6510 C.3    16  ILE16       0.1595
     35  C         17.3830   26.7410   10.7640 C.2    16  ILE16       0.2287
     36  O         17.9460   27.7600   10.3580 O.2    16  ILE16      -0.2864
     37  CB        18.8540   24.6090   10.8350 C.3    16  ILE16       0.0276
     38  CG1       17.8650   23.7900    9.9930 C.3    16  ILE16       0.0022
     39  CG2       19.6840   23.7220   11.7790 C.3    16  ILE16       0.0022
     40  CD1       18.5080   22.7290    9.0920 C.3    16  ILE16       0.0001
     41  N          5.5170   21.3880   13.4340 N.3    67  ASP67      -0.1239
     42  CA         6.0660   20.4730   14.4300 C.3    67  ASP67       0.1674
     43  C          4.9550   19.6870   15.1100 C.2    67  ASP67       0.2266
     44  O          3.7980   20.1210   15.1420 O.2    67  ASP67      -0.2867
     45  CB         6.9180   21.2200   15.4630 C.3    67  ASP67       0.1410
     46  CG         8.0940   20.3750   15.9970 C.2    67  ASP67       0.3668
     47  OD1        8.0360   19.1170   15.9430 O.co2  67  ASP67      -0.2456
     48  OD2        9.0750   20.9870   16.4950 O.co2  67  ASP67      -0.2456
     49  N          5.4190   18.7600   18.3190 N.3    69  GLU69      -0.1245
     50  CA         5.7090   19.0430   19.7240 C.3    69  GLU69       0.1567
     51  C          6.0500   20.5360   19.9010 C.2    69  GLU69       0.2260
     52  O          6.6570   21.1460   19.0130 O.2    69  GLU69      -0.2867
     53  CB         6.8400   18.1440   20.2500 C.3    69  GLU69       0.0388
     54  CG         8.2580   18.5680   19.8440 C.3    69  GLU69       0.1160
     55  CD         9.3310   18.0900   20.8270 C.2    69  GLU69       0.3649
     56  OE1       10.5350   18.3370   20.5680 O.co2  69  GLU69      -0.2457
     57  OE2        8.9730   17.4680   21.8590 O.co2  69  GLU69      -0.2457
     58  N          6.4030   12.8360   17.7410 N.3    99  ALA99      -0.1245
     59  CA         6.7180   11.7140   16.8680 C.3    99  ALA99       0.1562
     60  C          7.6090   10.6710   17.5520 C.2    99  ALA99       0.2260
     61  O          7.9630    9.6610   16.9510 O.2    99  ALA99      -0.2867
     62  CB         7.3510   12.2140   15.5850 C.3    99  ALA99       0.0290
     63  N         10.7010   10.5090   18.2190 N.3   101  ASN101     -0.1240
     64  CA        11.8840   10.2260   17.3740 C.3   101  ASN101      0.1653
     65  C         11.7290    8.9950   16.4850 C.2   101  ASN101      0.2266
     66  O         12.6860    8.2450   16.2800 O.2   101  ASN101     -0.2867
     67  CB        13.1610   10.1200   18.2270 C.3   101  ASN101      0.1155
     68  CG        13.6010   11.4620   18.7820 C.2   101  ASN101      0.2627
     69  OD1       13.7710   12.4320   18.0390 O.2   101  ASN101     -0.2716
     70  ND2       13.7930   11.5240   20.0840 N.am  101  ASN101     -0.0877
     71  N         15.9130   17.2850    9.6990 N.3   139  SER139     -0.1217
     72  CA        16.8880   16.2230    9.8700 C.3   139  SER139      0.1889
     73  C         16.2630   14.9070    9.4370 C.2   139  SER139      0.2288
     74  O         15.0420   14.7990    9.3390 O.2   139  SER139     -0.2866
     75  CB        17.3270   16.1370   11.3240 C.3   139  SER139      0.2089
     76  OG        16.2330   15.7350   12.1130 O.3   139  SER139     -0.2183
     77  N         17.1060   11.7760   11.0260 N.3   141  ALA141     -0.1231
     78  CA        17.2740   10.7430   12.0620 C.3   141  ALA141      0.1694
     79  C         16.2680   10.8000   13.2120 C.2   141  ALA141      0.2593
     80  O         16.2490    9.9030   14.0670 O.2   141  ALA141     -0.2718
     81  CB        18.7060   10.7760   12.6190 C.3   141  ALA141      0.0304
     82  N         15.4540   11.8530   13.2550 N.am  142  GLY142     -0.1942
     83  CA        14.4020   11.9610   14.2670 C.3   142  GLY142      0.2014
     84  C         13.0930   11.3810   13.7690 C.2   142  GLY142      0.2639
     85  O         13.0870   10.4580   12.9540 O.2   142  GLY142     -0.2714
     86  N         11.9800   11.9310   14.2410 N.am  143  GLY143     -0.1939
     87  CA        10.6590   11.4370   13.8470 C.3   143  GLY143      0.2014
     88  C          9.8240   12.3640   12.9840 C.2   143  GLY143      0.2640
     89  O          9.1760   11.9170   12.0380 O.2   143  GLY143     -0.2714
     90  N          9.8140   13.6470   13.3260 N.am  144  THR144     -0.1936
     91  CA         9.0180   14.6360   12.6040 C.3   144  THR144      0.2028
     92  C          9.7090   15.0870   11.3090 C.2   144  THR144      0.2642
     93  O          9.1230   14.9860   10.2300 O.2   144  THR144     -0.2714
     94  CB         8.6840   15.8550   13.4950 C.3   144  THR144      0.1808
     95  OG1        8.1510   15.3960   14.7400 O.3   144  THR144     -0.2208
     96  CG2        7.6790   16.7800   12.8200 C.3   144  THR144      0.0379
     97  N         10.9470   15.5750   11.4160 N.am  145  GLY145     -0.1954
     98  CA        11.7230   15.9540   10.2270 C.3   145  GLY145      0.1869
     99  C         11.7940   14.8160    9.2160 C.2   145  GLY145      0.2309
    100  O         11.5850   15.0110    8.0150 O.2   145  GLY145     -0.2863
    101  N         19.7370   17.6100    7.5050 N.3   170  VAL170     -0.1231
    102  CA        20.7420   17.3270    8.5330 C.3   170  VAL170      0.1692
    103  C         20.8840   15.8240    8.8000 C.2   170  VAL170      0.2592
    104  O         19.9370   15.1620    9.2490 O.2   170  VAL170     -0.2718
    105  CB        20.4660   18.0860    9.8540 C.3   170  VAL170      0.0266
    106  CG1       21.4060   17.6030   10.9620 C.3   170  VAL170      0.0020
    107  CG2       20.6220   19.5910    9.6420 C.3   170  VAL170      0.0020
    108  N         22.0820   15.3110    8.5190 N.am  171  PHE171     -0.1963
    109  CA        22.4180   13.8990    8.6930 C.3   171  PHE171      0.1756
    110  C         23.0490   13.6920   10.0790 C.2   171  PHE171      0.2461
    111  O         23.7510   14.5760   10.5680 O.2   171  PHE171     -0.2730
    112  CB        23.3950   13.4540    7.5910 C.3   171  PHE171      0.0574
    113  CG        22.7320   13.0790    6.2860 C.ar  171  PHE171     -0.0200
    114  CD1       21.8780   13.9640    5.6250 C.ar  171  PHE171     -0.0042
    115  CD2       22.9830   11.8400    5.7030 C.ar  171  PHE171     -0.0042
    116  CE1       21.2790   13.6220    4.4130 C.ar  171  PHE171     -0.0003
    117  CE2       22.3830   11.4870    4.4870 C.ar  171  PHE171     -0.0003
    118  CZ        21.5320   12.3870    3.8420 C.ar  171  PHE171     -0.0000
    119  N         22.8010   12.5270   10.7130 N.am  172  PRO172     -0.2716
    120  CA        23.2100   12.3200   12.1050 C.3   172  PRO172      0.1536
    121  C         24.7270   12.1780   12.2900 C.2   172  PRO172      0.2598
    122  O         25.4320   11.7880   11.3540 O.2   172  PRO172     -0.2715
    123  CB        22.4920   11.0220   12.4870 C.3   172  PRO172      0.0310
    124  CG        22.3300   10.2850   11.2020 C.3   172  PRO172      0.0237
    125  CD        22.1340   11.3330   10.1480 C.3   172  PRO172      0.0939
    126  N         25.2210   12.5170   13.4820 N.am  173  ASN173     -0.1973
    127  CA        26.6460   12.3640   13.8140 C.3   173  ASN173      0.1688
    128  C         26.9900   10.8840   13.8700 C.2   173  ASN173      0.2292
    129  O         26.4870   10.1500   14.7310 O.2   173  ASN173     -0.2864
    130  CB        26.9830   13.0640   15.1490 C.3   173  ASN173      0.1181
    131  CG        28.5010   13.0850   15.4640 C.2   173  ASN173      0.2629
    132  OD1       29.3150   12.4780   14.7720 O.2   173  ASN173     -0.2716
    133  ND2       28.8640   13.7800   16.5240 N.am  173  ASN173     -0.0877
    134  N         18.8240    7.6890   20.1590 N.3   180  VAL180     -0.1245
    135  CA        17.8060    7.1900   19.2490 C.3   180  VAL180      0.1561
    136  C         18.3540    5.9480   18.5450 C.2   180  VAL180      0.2260
    137  O         19.0950    6.0350   17.5620 O.2   180  VAL180     -0.2867
    138  CB        17.3390    8.2780   18.2510 C.3   180  VAL180      0.0252
    139  CG1       16.0990    7.8200   17.4930 C.3   180  VAL180      0.0019
    140  CG2       17.0550    9.5920   18.9880 C.3   180  VAL180      0.0019
    141  N         17.7860    5.2160   14.8010 N.3   183  GLN183     -0.1245
    142  CA        18.3960    6.1870   13.8800 C.3   183  GLN183      0.1566
    143  C         18.5590    5.6840   12.4270 C.2   183  GLN183      0.2260
    144  O         18.1450    6.3860   11.5080 O.2   183  GLN183     -0.2867
    145  CB        19.7190    6.7520   14.4480 C.3   183  GLN183      0.0367
    146  CG        20.6420    7.4150   13.4040 C.3   183  GLN183      0.0905
    147  CD        22.0480    7.7390   13.9380 C.2   183  GLN183      0.2608
    148  OE1       23.0540    7.2450   13.4060 O.2   183  GLN183     -0.2717
    149  NE2       22.1210    8.5680   14.9790 N.am  183  GLN183     -0.0878
    150  N         26.1520   16.2720   10.4980 N.3   206  ASN206     -0.1240
    151  CA        26.5070   16.6220   11.8840 C.3   206  ASN206      0.1653
    152  C         27.8690   16.0450   12.3210 C.2   206  ASN206      0.2266
    153  O         28.5080   16.5940   13.2110 O.2   206  ASN206     -0.2867
    154  CB        25.4110   16.2010   12.8740 C.3   206  ASN206      0.1155
    155  CG        24.3180   17.2660   13.0680 C.2   206  ASN206      0.2627
    156  OD1       24.4200   18.3980   12.5970 O.2   206  ASN206     -0.2716
    157  ND2       23.2680   16.8940   13.7790 N.am  206  ASN206     -0.0877
    158  N         23.9080   22.4620   20.1150 N.3   224  PHE224     -0.1241
    159  CA        23.2930   22.6440   18.8050 C.3   224  PHE224      0.1605
    160  C         23.3890   24.0850   18.3300 C.2   224  PHE224      0.2264
    161  O         23.5990   24.3310   17.1480 O.2   224  PHE224     -0.2867
    162  CB        21.8310   22.1940   18.8200 C.3   224  PHE224      0.0534
    163  CG        21.6560   20.7090   18.8680 C.ar  224  PHE224     -0.0203
    164  CD1       20.9360   20.1170   19.8990 C.ar  224  PHE224     -0.0042
    165  CD2       22.2070   19.8970   17.8810 C.ar  224  PHE224     -0.0042
    166  CE1       20.7650   18.7380   19.9480 C.ar  224  PHE224     -0.0003
    167  CE2       22.0470   18.5140   17.9210 C.ar  224  PHE224     -0.0003
    168  CZ        21.3220   17.9340   18.9570 C.ar  224  PHE224     -0.0000
    169  N         26.8770   24.5610   16.7960 N.3   227  ILE227     -0.1231
    170  CA        26.9580   24.0390   15.4220 C.3   227  ILE227      0.1692
    171  C         25.9960   24.7320   14.4310 C.2   227  ILE227      0.2592
    172  O         26.2990   24.8010   13.2440 O.2   227  ILE227     -0.2718
    173  CB        26.8390   22.4770   15.3190 C.3   227  ILE227      0.0266
    174  CG1       25.3820   22.0180   15.3410 C.3   227  ILE227      0.0019
    175  CG2       27.7260   21.7520   16.3780 C.3   227  ILE227      0.0020
    176  CD1       25.2150   20.5300   15.0420 C.3   227  ILE227      0.0001
    177  N         24.8590   25.2470   14.9130 N.am  228  ASN228     -0.1974
    178  CA        23.9010   25.9490   14.0390 C.3   228  ASN228      0.1688
    179  C         24.4080   27.2770   13.4950 C.2   228  ASN228      0.2292
    180  O         23.8940   27.7680   12.4880 O.2   228  ASN228     -0.2864
    181  CB        22.5300   26.1360   14.7040 C.3   228  ASN228      0.1181
    182  CG        21.7620   24.8330   14.8500 C.2   228  ASN228      0.2629
    183  OD1       22.1140   23.8100   14.2530 O.2   228  ASN228     -0.2716
    184  ND2       20.7120   24.8620   15.6550 N.am  228  ASN228     -0.0877
    185  N         25.8710   26.1700   10.3590 N.3   231  VAL231     -0.1245
    186  CA        24.7640   25.8370    9.4660 C.3   231  VAL231      0.1561
    187  C         24.1100   27.0870    8.8550 C.2   231  VAL231      0.2260
    188  O         23.9070   27.1440    7.6480 O.2   231  VAL231     -0.2867
    189  CB        23.7030   24.9490   10.1920 C.3   231  VAL231      0.0252
    190  CG1       22.5620   24.5980    9.2660 C.3   231  VAL231      0.0019
    191  CG2       24.3410   23.6770   10.7350 C.3   231  VAL231      0.0019
@<TRIPOS>BOND
     1   118   116   ar
     2   118   117   ar
     3   116   114   ar
     4   117   115   ar
     5   114   113   ar
     6   115   113   ar
     7   113   112    1
     8   101   102    1
     9   112   109    1
    10   188   187    2
    11   100    99    2
    12   108   109    1
    13   108   103   am
    14   102   103    1
    15   102   105    1
    16   109   110    1
    17   103   104    2
    18   187   186    1
    19    40    38    1
    20    99    98    1
    21   190   189    1
    22    74    73    2
    23    73    72    1
    24   186   189    1
    25   186   185    1
    26   107   105    1
    27    71    72    1
    28   105   106    1
    29    72    75    1
    30    38    37    1
    31   110   111    2
    32   110   119   am
    33   125   119    1
    34   125   124    1
    35   189   191    1
    36    98    97    1
    37    93    92    2
    38    36    35    2
    39   150   151    1
    40    23    22    2
    41   119   120    1
    42    35    34    1
    43    37    34    1
    44    37    39    1
    45    21    22    1
    46    21    20    1
    47    77    78    1
    48   124   123    1
    49    92    97   am
    50    92    91    1
    51    75    76    1
    52   122   121    2
    53   144   143    2
    54    34    33    1
    55   151   152    1
    56   151   154    1
    57    20    16   am
    58    89    88    2
    59    78    81    1
    60    78    79    1
    61   120   121    1
    62   120   123    1
    63    19    18    1
    64   121   126   am
    65   152   153    2
    66   143   142    1
    67   180   179    2
    68     1     2    1
    69   156   155    2
    70    91    90    1
    71    91    94    1
    72    33    26   am
    73    17    16    2
    74    16    15    1
    75    96    94    1
    76   154   155    1
    77    85    84    2
    78    88    90   am
    79    88    87    1
    80   155   157   am
    81    79    82   am
    82    79    80    2
    83   172   171    2
    84    82    83    1
    85    18    15    1
    86   146   147    1
    87   146   145    1
    88   148   147    2
    89    41    42    1
    90   126   127    1
    91   179   178    1
    92    94    95    1
    93     2     3    1
    94    26    27    2
    95    26    25    1
    96    84    86   am
    97    84    83    1
    98   127   128    1
    99   127   130    1
   100    87    86    1
   101   128   129    2
   102    15    14    1
   103   142   145    1
   104   142   141    1
   105   147   149   am
   106   178   181    1
   107   178   177    1
   108     4     3    2
   109    24    25    1
   110   183   182    2
   111    42    43    1
   112    42    45    1
   113   171   177   am
   114   171   170    1
   115     3     5   am
   116    14     7   am
   117   181   182    1
   118   132   131    2
   119    25    28    1
   120   182   184   am
   121   176   174    1
   122    43    44    2
   123   130   131    1
   124     8     7    2
   125   173   174    1
   126   173   170    1
   127   173   175    1
   128     7     6    1
   129   170   169    1
   130     5     6    1
   131    45    46    1
   132   131   133   am
   133    62    59    1
   134    28    29    1
   135    47    46   ar
   136    46    48   ar
   137     6     9    1
   138    66    65    2
   139    65    64    1
   140    59    60    1
   141    59    58    1
   142    61    60    2
   143   161   160    2
   144    29    30    1
   145    64    63    1
   146    64    67    1
   147     9    10    1
   148   139   138    1
   149   137   136    2
   150   165   167   ar
   151   165   163   ar
   152   167   168   ar
   153    32    30   am
   154    69    68    2
   155    10    11    1
   156    67    68    1
   157   138   140    1
   158   138   135    1
   159    49    50    1
   160   160   159    1
   161    30    31    2
   162   136   135    1
   163    68    70   am
   164   159   162    1
   165   159   158    1
   166   162   163    1
   167   163   164   ar
   168   168   166   ar
   169    52    51    2
   170    13    11   am
   171   135   134    1
   172    11    12    2
   173    50    51    1
   174    50    53    1
   175    54    53    1
   176    54    55    1
   177   164   166   ar
   178    56    55   ar
   179    55    57   ar
