@<TRIPOS>MOLECULE
tmp/3cb3A00.pdb
 174 161 0 0 0
SMALL
GASTEIGER

@<TRIPOS>ATOM
      1  N         59.0820   90.1970   11.5880 N.3    20  ILE20      -0.1245
      2  CA        60.4100   90.1510   10.9960 C.3    20  ILE20       0.1561
      3  C         60.2610   90.0340    9.4820 C.2    20  ILE20       0.2260
      4  O         59.6960   89.0580    8.9850 O.2    20  ILE20      -0.2867
      5  CB        61.1950   88.9310   11.5090 C.3    20  ILE20       0.0252
      6  CG1       61.0510   88.8230   13.0270 C.3    20  ILE20       0.0019
      7  CG2       62.6700   89.0710   11.1440 C.3    20  ILE20       0.0019
      8  CD1       61.4570   87.4660   13.5790 C.3    20  ILE20       0.0001
      9  N         62.5970   90.1800    6.0700 N.3    22  ASP22      -0.1239
     10  CA        63.8890   90.2510    5.4000 C.3    22  ASP22       0.1674
     11  C         63.6960   90.6850    3.9500 C.2    22  ASP22       0.2266
     12  O         62.6190   91.1450    3.5660 O.2    22  ASP22      -0.2867
     13  CB        64.5750   88.8850    5.4380 C.3    22  ASP22       0.1410
     14  CG        63.7990   87.8270    4.6800 C.2    22  ASP22       0.3668
     15  OD1       62.6240   87.5790    5.0290 O.co2  22  ASP22      -0.2456
     16  OD2       64.3620   87.2440    3.7290 O.co2  22  ASP22      -0.2456
     17  N         57.5170   87.2020    9.3180 N.3    33  MET33      -0.1245
     18  CA        57.4900   86.2390   10.4130 C.3    33  MET33       0.1570
     19  C         56.8420   86.9700   11.5850 C.2    33  MET33       0.2261
     20  O         57.3500   88.0020   12.0180 O.2    33  MET33      -0.2867
     21  CB        58.9180   85.8320   10.7770 C.3    33  MET33       0.0387
     22  CG        59.0270   84.6540   11.7320 C.3    33  MET33       0.0595
     23  SD        60.7440   84.3810   12.2390 S.3    33  MET33      -0.1393
     24  CE        61.5860   84.4990   10.6390 C.3    33  MET33       0.0692
     25  N         61.5620   78.6750   13.3640 N.3    58  LYS58      -0.1245
     26  CA        61.2760   80.0550   12.9780 C.3    58  LYS58       0.1561
     27  C         60.2260   80.1040   11.8740 C.2    58  LYS58       0.2260
     28  O         59.2220   80.8130   11.9900 O.2    58  LYS58      -0.2867
     29  CB        62.5690   80.7600   12.5490 C.3    58  LYS58       0.0271
     30  CG        63.4480   79.9790   11.5820 C.3    58  LYS58       0.0035
     31  CD        63.2840   80.4530   10.1420 C.3    58  LYS58       0.0206
     32  CE        63.5180   81.9590   10.0110 C.3    58  LYS58       0.1093
     33  NZ        64.8160   82.4050   10.5950 N.3    58  LYS58      -0.1314
     34  N         70.8910   93.7080   18.3430 N.3   143  THR143     -0.1218
     35  CA        70.6570   94.4210   17.0870 C.3   143  THR143      0.1862
     36  C         69.8900   95.7060   17.3580 C.2   143  THR143      0.2287
     37  O         69.7670   96.5680   16.4780 O.2   143  THR143     -0.2866
     38  CB        69.8220   93.5800   16.1090 C.3   143  THR143      0.1770
     39  OG1       68.5500   93.3000   16.7020 O.3   143  THR143     -0.2211
     40  CG2       70.5330   92.2660   15.7740 C.3   143  THR143      0.0375
     41  N         66.9430   96.7560   11.4470 N.3   147  PHE147     -0.1241
     42  CA        66.8070   95.9460   10.2460 C.3   147  PHE147      0.1605
     43  C         67.4030   96.7090    9.0830 C.2   147  PHE147      0.2264
     44  O         67.6280   97.9130    9.1690 O.2   147  PHE147     -0.2867
     45  CB        65.3340   95.6520    9.9550 C.3   147  PHE147      0.0534
     46  CG        64.6610   94.8380   11.0160 C.ar  147  PHE147     -0.0203
     47  CD1       65.0980   93.5500   11.3000 C.ar  147  PHE147     -0.0042
     48  CD2       63.5880   95.3580   11.7310 C.ar  147  PHE147     -0.0042
     49  CE1       64.4760   92.7850   12.2830 C.ar  147  PHE147     -0.0003
     50  CE2       62.9580   94.6000   12.7160 C.ar  147  PHE147     -0.0003
     51  CZ        63.4040   93.3110   12.9910 C.ar  147  PHE147     -0.0000
     52  N         75.1680   94.5060   16.5760 N.3   171  LYS171     -0.1245
     53  CA        75.2870   93.8030   15.2950 C.3   171  LYS171      0.1561
     54  C         74.3650   94.5130   14.3080 C.2   171  LYS171      0.2260
     55  O         73.1690   94.6880   14.5680 O.2   171  LYS171     -0.2867
     56  CB        74.8780   92.3320   15.4120 C.3   171  LYS171      0.0271
     57  CG        75.2090   91.5280   14.1520 C.3   171  LYS171      0.0035
     58  CD        75.2030   90.0160   14.3950 C.3   171  LYS171      0.0206
     59  CE        73.7940   89.4680   14.5380 C.3   171  LYS171      0.1093
     60  NZ        73.8340   88.0270   14.9440 N.3   171  LYS171     -0.1314
     61  N         72.7010   94.8040   10.4250 N.3   173  LYS173     -0.1245
     62  CA        72.3900   94.0390    9.2390 C.3   173  LYS173      0.1561
     63  C         72.8900   94.7650    7.9960 C.2   173  LYS173      0.2260
     64  O         72.7390   95.9810    7.8660 O.2   173  LYS173     -0.2867
     65  CB        70.8820   93.7920    9.1570 C.3   173  LYS173      0.0271
     66  CG        70.4030   92.7620   10.1640 C.3   173  LYS173      0.0035
     67  CD        68.9090   92.5730   10.1120 C.3   173  LYS173      0.0206
     68  CE        68.4990   91.4020   10.9810 C.3   173  LYS173      0.1093
     69  NZ        69.1510   90.1370   10.5350 N.3   173  LYS173     -0.1314
     70  N         75.8940   91.4980    9.9600 N.3   202  ASP202     -0.1239
     71  CA        75.2970   90.2380    9.5270 C.3   202  ASP202      0.1674
     72  C         74.7630   90.4630    8.1050 C.2   202  ASP202      0.2266
     73  O         73.8760   91.2870    7.8950 O.2   202  ASP202     -0.2867
     74  CB        74.1480   89.8480   10.4500 C.3   202  ASP202      0.1410
     75  CG        73.6990   88.4080   10.2500 C.2   202  ASP202      0.3668
     76  OD1       73.8370   87.8770    9.1220 O.co2 202  ASP202     -0.2456
     77  OD2       73.1920   87.8100   11.2250 O.co2 202  ASP202     -0.2456
     78  N         73.5110   87.9720    6.3340 N.3   204  ASN204     -0.1240
     79  CA        72.4590   86.9830    6.1460 C.3   204  ASN204      0.1653
     80  C         72.4890   86.2760    4.7880 C.2   204  ASN204      0.2266
     81  O         71.4610   86.1850    4.1140 O.2   204  ASN204     -0.2867
     82  CB        71.0900   87.6300    6.3610 C.3   204  ASN204      0.1155
     83  CG        70.8240   87.9410    7.8140 C.2   204  ASN204      0.2627
     84  OD1       70.4920   87.0490    8.6050 O.2   204  ASN204     -0.2716
     85  ND2       70.9810   89.2040    8.1830 N.am  204  ASN204     -0.0877
     86  N         79.2950   88.2590    9.6790 N.3   228  GLU228     -0.1245
     87  CA        78.4780   87.0550    9.7390 C.3   228  GLU228      0.1567
     88  C         77.7210   86.6800    8.4600 C.2   228  GLU228      0.2260
     89  O         77.1580   87.5400    7.7730 O.2   228  GLU228     -0.2867
     90  CB        77.4830   87.2120   10.8840 C.3   228  GLU228      0.0388
     91  CG        76.5540   86.0590   11.1080 C.3   228  GLU228      0.1160
     92  CD        75.6790   86.2810   12.3150 C.2   228  GLU228      0.3649
     93  OE1       76.0960   87.0470   13.2110 O.co2 228  GLU228     -0.2457
     94  OE2       74.5870   85.6810   12.3880 O.co2 228  GLU228     -0.2457
     95  N         74.6420   79.3700   12.0730 N.3   254  GLU254     -0.1231
     96  CA        73.2790   79.4060   12.6060 C.3   254  GLU254      0.1699
     97  C         72.2670   78.5400   11.8530 C.2   254  GLU254      0.2592
     98  O         71.3210   78.0360   12.4540 O.2   254  GLU254     -0.2718
     99  CB        72.7560   80.8500   12.6550 C.3   254  GLU254      0.0402
    100  CG        72.2950   81.4140   11.3060 C.3   254  GLU254      0.1161
    101  CD        71.9050   82.8840   11.3960 C.2   254  GLU254      0.3649
    102  OE1       72.7570   83.6920   11.8200 O.co2 254  GLU254     -0.2457
    103  OE2       70.7530   83.2280   11.0510 O.co2 254  GLU254     -0.2457
    104  N         72.4530   78.3710   10.5450 N.am  255  MET255     -0.1979
    105  CA        71.5190   77.5650    9.7510 C.3   255  MET255      0.1605
    106  C         71.7690   76.0510    9.7830 C.2   255  MET255      0.2287
    107  O         70.8960   75.2740    9.4020 O.2   255  MET255     -0.2864
    108  CB        71.5320   78.0350    8.2880 C.3   255  MET255      0.0413
    109  CG        71.1860   79.4990    8.1080 C.3   255  MET255      0.0598
    110  SD        69.6430   79.9260    8.9380 S.3   255  MET255     -0.1393
    111  CE        68.4640   78.9870    7.9540 C.3   255  MET255      0.0692
    112  N         78.8720   79.5140   14.9630 N.3   275  MET275     -0.1245
    113  CA        77.6110   79.9320   15.5560 C.3   275  MET275      0.1570
    114  C         76.5490   78.8470   15.6250 C.2   275  MET275      0.2261
    115  O         75.4980   78.9380   14.9870 O.2   275  MET275     -0.2867
    116  CB        77.0610   81.1430   14.8010 C.3   275  MET275      0.0387
    117  CG        78.0300   82.3100   14.7290 C.3   275  MET275      0.0595
    118  SD        77.2590   83.7410   13.9310 S.3   275  MET275     -0.1393
    119  CE        76.4050   84.5030   15.3710 C.3   275  MET275      0.0692
    120  N         68.5350   73.9770   17.1480 N.3   280  ARG280     -0.1245
    121  CA        68.6070   73.5950   15.7410 C.3   280  ARG280      0.1563
    122  C         69.4900   72.3850   15.4340 C.2   280  ARG280      0.2260
    123  O         69.2380   71.6790   14.4570 O.2   280  ARG280     -0.2867
    124  CB        69.0710   74.7810   14.8820 C.3   280  ARG280      0.0307
    125  CG        68.0390   75.8950   14.7470 C.3   280  ARG280      0.0489
    126  CD        68.5050   76.9990   13.8080 C.3   280  ARG280      0.2205
    127  NE        67.5270   78.0800   13.7560 N.pl3 280  ARG280     -0.0865
    128  CZ        67.6800   79.2010   13.0560 C.cat 280  ARG280      0.5346
    129  NH1       68.7820   79.3950   12.3420 N.pl3 280  ARG280      0.1354
    130  NH2       66.7270   80.1250   13.0630 N.pl3 280  ARG280      0.1354
    131  N         74.0410   80.8860   18.4740 N.3   304  HIS304     -0.1241
    132  CA        72.9710   81.6400   17.8300 C.3   304  HIS304      0.1621
    133  C         71.6390   81.5600   18.5750 C.2   304  HIS304      0.2264
    134  O         71.1700   80.4720   18.9140 O.2   304  HIS304     -0.2867
    135  CB        72.7890   81.1510   16.3850 C.3   304  HIS304      0.0745
    136  CG        71.5380   81.6520   15.7280 C.ar  304  HIS304      0.0817
    137  ND1       70.3550   80.9440   15.7420 N.ar  304  HIS304     -0.2268
    138  CD2       71.2760   82.8120   15.0770 C.ar  304  HIS304      0.1154
    139  CE1       69.4180   81.6460   15.1290 C.ar  304  HIS304      0.1986
    140  NE2       69.9500   82.7830   14.7170 N.ar  304  HIS304     -0.2212
    141  N         74.1010   86.6340   22.0000 N.3   324  GLU324     -0.1245
    142  CA        73.2080   87.7210   21.6230 C.3   324  GLU324      0.1567
    143  C         72.0010   87.8110   22.5310 C.2   324  GLU324      0.2260
    144  O         71.3740   86.8010   22.8570 O.2   324  GLU324     -0.2867
    145  CB        72.7480   87.5700   20.1650 C.3   324  GLU324      0.0388
    146  CG        71.9930   88.7930   19.6430 C.3   324  GLU324      0.1160
    147  CD        71.7520   88.7570   18.1360 C.2   324  GLU324      0.3649
    148  OE1       71.0830   89.6810   17.6210 O.co2 324  GLU324     -0.2457
    149  OE2       72.2290   87.8130   17.4660 O.co2 324  GLU324     -0.2457
    150  N         68.2690   88.7710   23.1920 N.3   326  PHE326     -0.1241
    151  CA        66.9960   88.8600   22.4810 C.3   326  PHE326      0.1605
    152  C         65.9200   88.9000   23.5510 C.2   326  PHE326      0.2264
    153  O         66.0550   88.2520   24.5840 O.2   326  PHE326     -0.2867
    154  CB        66.7610   87.6010   21.6380 C.3   326  PHE326      0.0534
    155  CG        67.4290   87.6160   20.2970 C.ar  326  PHE326     -0.0203
    156  CD1       66.8300   88.2590   19.2150 C.ar  326  PHE326     -0.0042
    157  CD2       68.6330   86.9440   20.0970 C.ar  326  PHE326     -0.0042
    158  CE1       67.4180   88.2280   17.9460 C.ar  326  PHE326     -0.0003
    159  CE2       69.2330   86.9060   18.8350 C.ar  326  PHE326     -0.0003
    160  CZ        68.6210   87.5490   17.7560 C.ar  326  PHE326     -0.0000
    161  N         62.7530   88.2540   22.6310 N.3   328  TRP328     -0.1241
    162  CA        61.7260   87.3940   22.0370 C.3   328  TRP328      0.1605
    163  C         61.1510   86.2860   22.9160 C.2   328  TRP328      0.2264
    164  O         59.9310   86.1500   23.0250 O.2   328  TRP328     -0.2867
    165  CB        62.2600   86.7610   20.7490 C.3   328  TRP328      0.0550
    166  CG        62.5830   87.7460   19.6590 C.ar  328  TRP328      0.0003
    167  CD1       62.6000   89.1110   19.7550 C.ar  328  TRP328      0.0946
    168  CD2       62.9950   87.4340   18.3230 C.ar  328  TRP328      0.0152
    169  NE1       63.0020   89.6660   18.5620 N.ar  328  TRP328     -0.2442
    170  CE2       63.2520   88.6590   17.6670 C.ar  328  TRP328      0.0810
    171  CE3       63.1760   86.2370   17.6180 C.ar  328  TRP328      0.0012
    172  CZ2       63.6830   88.7210   16.3390 C.ar  328  TRP328      0.0191
    173  CZ3       63.6040   86.2980   16.2960 C.ar  328  TRP328      0.0001
    174  CH2       63.8540   87.5340   15.6720 C.ar  328  TRP328      0.0015
@<TRIPOS>BOND
     1    12    11    2
     2    16    14   ar
     3    11    10    1
     4    81    80    2
     5    14    15   ar
     6    14    13    1
     7    80    79    1
     8    10    13    1
     9    10     9    1
    10    79    78    1
    11    79    82    1
    12    82    83    1
    13    89    88    2
    14    83    85   am
    15    83    84    2
    16    64    63    2
    17    73    72    2
    18   111   110    1
    19    63    62    1
    20    72    71    1
    21   109   108    1
    22   109   110    1
    23   108   105    1
    24    88    87    1
    25     4     3    2
    26    43    44    2
    27    43    42    1
    28    76    75   ar
    29    65    62    1
    30    65    66    1
    31    62    61    1
    32    17    18    1
    33   107   106    2
    34     3     2    1
    35    71    70    1
    36    71    74    1
    37    86    87    1
    38    87    90    1
    39   105   106    1
    40   105   104    1
    41    45    42    1
    42    45    46    1
    43    32    31    1
    44    32    33    1
    45    67    66    1
    46    67    68    1
    47    31    30    1
    48    42    41    1
    49    75    74    1
    50    75    77   ar
    51    18    21    1
    52    18    19    1
    53    69    68    1
    54   104    97   am
    55    24    23    1
    56    21    22    1
    57    90    91    1
    58     2     5    1
    59     2     1    1
    60    46    47   ar
    61    46    48   ar
    62   103   101   ar
    63    91    92    1
    64     7     5    1
    65    47    49   ar
    66   100   101    1
    67   100    99    1
    68   101   102   ar
    69     5     6    1
    70    30    29    1
    71    19    20    2
    72    48    50   ar
    73    22    23    1
    74    97    98    2
    75    97    96    1
    76    27    28    2
    77    27    26    1
    78    95    96    1
    79    49    51   ar
    80    92    94   ar
    81    92    93   ar
    82   129   128    1
    83    29    26    1
    84    96    99    1
    85    50    51   ar
    86    26    25    1
    87     6     8    1
    88   128   130    1
    89   128   127    2
    90   127   126    1
    91   126   125    1
    92   118   117    1
    93   118   119    1
    94    57    58    1
    95    57    56    1
    96    54    55    2
    97    54    53    1
    98    58    59    1
    99   123   122    2
   100    59    60    1
   101   140   138   ar
   102   140   139   ar
   103   117   116    1
   104   125   124    1
   105   116   113    1
   106   124   121    1
   107   112   113    1
   108   115   114    2
   109   138   136   ar
   110   139   137   ar
   111    53    56    1
   112    53    52    1
   113   122   121    1
   114   113   114    1
   115   174   173   ar
   116   174   172   ar
   117   136   137   ar
   118   136   135    1
   119   121   120    1
   120    40    38    1
   121    38    39    1
   122    38    35    1
   123   173   171   ar
   124   172   170   ar
   125   135   132    1
   126    37    36    2
   127    35    36    1
   128    35    34    1
   129   149   147   ar
   130   171   168   ar
   131   148   147   ar
   132   170   168   ar
   133   170   169   ar
   134   160   158   ar
   135   160   159   ar
   136   132   131    1
   137   132   133    1
   138   158   156   ar
   139   147   146    1
   140   168   166   ar
   141   169   167   ar
   142   133   134    2
   143   159   157   ar
   144   156   155   ar
   145   146   145    1
   146   166   167   ar
   147   166   165    1
   148   157   155   ar
   149   145   142    1
   150   155   154    1
   151   165   162    1
   152   142   141    1
   153   142   143    1
   154   154   151    1
   155   162   161    1
   156   162   163    1
   157   151   150    1
   158   151   152    1
   159   143   144    2
   160   163   164    2
   161   152   153    2
