@<TRIPOS>MOLECULE
tmp/3cb8A00.pdb
 174 165 0 0 0
SMALL
GASTEIGER

@<TRIPOS>ATOM
      1  N        -17.7640  -39.2880   18.1330 N.3     6  HIS6       -0.1226
      2  CA       -17.9690  -39.3370   19.5650 C.3     6  HIS6        0.1752
      3  C        -19.2680  -38.6220   19.8900 C.2     6  HIS6        0.2596
      4  O        -20.1440  -39.1730   20.5520 O.2     6  HIS6       -0.2718
      5  CB       -16.8200  -38.6420   20.2850 C.3     6  HIS6        0.0759
      6  CG       -17.0470  -38.4770   21.7540 C.ar    6  HIS6        0.0818
      7  ND1      -16.6910  -39.4390   22.6760 N.ar    6  HIS6       -0.2268
      8  CD2      -17.6270  -37.4770   22.4590 C.ar    6  HIS6        0.1154
      9  CE1      -17.0410  -39.0380   23.8850 C.ar    6  HIS6        0.1986
     10  NE2      -17.6110  -37.8510   23.7800 N.ar    6  HIS6       -0.2212
     11  N        -19.3810  -37.3840   19.4250 N.am    7  SER7       -0.1952
     12  CA       -20.5750  -36.5900   19.6680 C.3     7  SER7        0.1924
     13  C        -20.5010  -35.2960   18.8730 C.2     7  SER7        0.2314
     14  O        -19.5910  -35.1050   18.0610 O.2     7  SER7       -0.2863
     15  CB       -20.7080  -36.2610   21.1620 C.3     7  SER7        0.2116
     16  OG       -19.8680  -35.1790   21.5440 O.3     7  SER7       -0.2180
     17  N        -21.8140  -30.8680   19.1360 N.3     9  GLU9       -0.1245
     18  CA       -22.4690  -29.7510   19.7930 C.3     9  GLU9        0.1567
     19  C        -23.1430  -28.9590   18.6830 C.2     9  GLU9        0.2260
     20  O        -22.4680  -28.4000   17.8120 O.2     9  GLU9       -0.2867
     21  CB       -21.4390  -28.8720   20.5130 C.3     9  GLU9        0.0388
     22  CG       -21.8720  -27.4020   20.6930 C.3     9  GLU9        0.1160
     23  CD       -23.0620  -27.2170   21.6480 C.2     9  GLU9        0.3649
     24  OE1      -22.8910  -27.4780   22.8650 O.co2   9  GLU9       -0.2457
     25  OE2      -24.1550  -26.8020   21.1830 O.co2   9  GLU9       -0.2457
     26  N        -19.5440  -21.9990   21.1320 N.3    13  THR13      -0.1203
     27  CA       -19.0770  -20.6300   20.9610 C.3    13  THR13       0.1994
     28  C        -17.5740  -20.4750   21.0850 C.2    13  THR13       0.2618
     29  O        -17.0390  -19.4000   20.8390 O.2    13  THR13      -0.2717
     30  CB       -19.7390  -19.7050   22.0010 C.3    13  THR13       0.1784
     31  OG1      -19.8600  -20.4090   23.2490 O.3    13  THR13      -0.2211
     32  CG2      -21.1220  -19.2530   21.5230 C.3    13  THR13       0.0376
     33  N        -16.8890  -21.5470   21.4540 N.am   14  VAL14      -0.1965
     34  CA       -15.4480  -21.4820   21.6390 C.3    14  VAL14       0.1727
     35  C        -14.7100  -22.5130   20.8120 C.2    14  VAL14       0.2616
     36  O        -13.7190  -23.0910   21.2580 O.2    14  VAL14      -0.2715
     37  CB       -15.1010  -21.7260   23.0960 C.3    14  VAL14       0.0290
     38  CG1      -15.6890  -20.6190   23.9650 C.3    14  VAL14       0.0023
     39  CG2      -15.6390  -23.0920   23.5110 C.3    14  VAL14       0.0023
     40  N        -15.1790  -22.7420   19.5990 N.am   15  ASP15      -0.1971
     41  CA       -14.5470  -23.7320   18.7540 C.3    15  ASP15       0.1709
     42  C        -14.3500  -23.1550   17.3730 C.2    15  ASP15       0.2293
     43  O        -14.5720  -23.8210   16.3600 O.2    15  ASP15      -0.2864
     44  CB       -15.4210  -24.9800   18.7340 C.3    15  ASP15       0.1436
     45  CG       -15.7000  -25.5000   20.1400 C.2    15  ASP15       0.3671
     46  OD1      -14.7250  -25.9190   20.8070 O.co2  15  ASP15      -0.2456
     47  OD2      -16.8780  -25.4730   20.5840 O.co2  15  ASP15      -0.2456
     48  N        -17.5120  -34.0120   17.0740 N.3    24  PHE24      -0.1241
     49  CA       -16.3140  -34.5790   17.6570 C.3    24  PHE24       0.1605
     50  C        -16.1370  -35.9920   17.1790 C.2    24  PHE24       0.2264
     51  O        -16.8400  -36.8930   17.6390 O.2    24  PHE24      -0.2867
     52  CB       -16.4180  -34.5870   19.1750 C.3    24  PHE24       0.0534
     53  CG       -16.6380  -33.2370   19.7690 C.ar   24  PHE24      -0.0203
     54  CD1      -17.9220  -32.7860   20.0380 C.ar   24  PHE24      -0.0042
     55  CD2      -15.5580  -32.4090   20.0540 C.ar   24  PHE24      -0.0042
     56  CE1      -18.1320  -31.5220   20.5870 C.ar   24  PHE24      -0.0003
     57  CE2      -15.7470  -31.1480   20.5980 C.ar   24  PHE24      -0.0003
     58  CZ       -17.0410  -30.7000   20.8690 C.ar   24  PHE24      -0.0000
     59  N         -8.9320  -33.3390   27.5100 N.3    36  HIS36      -0.1226
     60  CA       -10.1820  -33.3920   28.2460 C.3    36  HIS36       0.1752
     61  C        -11.1970  -34.3330   27.6080 C.2    36  HIS36       0.2596
     62  O        -12.2890  -34.5200   28.1380 O.2    36  HIS36      -0.2718
     63  CB       -10.7580  -31.9860   28.4530 C.3    36  HIS36       0.0759
     64  CG       -10.7790  -31.1420   27.2190 C.ar   36  HIS36       0.0818
     65  ND1      -10.8000  -29.7630   27.2660 N.ar   36  HIS36      -0.2268
     66  CD2      -10.8120  -31.4780   25.9060 C.ar   36  HIS36       0.1154
     67  CE1      -10.8450  -29.2850   26.0360 C.ar   36  HIS36       0.1986
     68  NE2      -10.8530  -30.3040   25.1920 N.ar   36  HIS36      -0.2212
     69  N        -10.8380  -34.9340   26.4780 N.am   37  ASN37      -0.1974
     70  CA       -11.7300  -35.8930   25.8270 C.3    37  ASN37       0.1688
     71  C        -10.9950  -37.2120   25.7770 C.2    37  ASN37       0.2292
     72  O        -10.8210  -37.7810   24.7040 O.2    37  ASN37      -0.2864
     73  CB       -12.0560  -35.4970   24.3820 C.3    37  ASN37       0.1181
     74  CG       -12.5900  -34.0960   24.2580 C.2    37  ASN37       0.2629
     75  OD1      -13.4890  -33.6880   24.9970 O.2    37  ASN37      -0.2716
     76  ND2      -12.0450  -33.3480   23.3070 N.am   37  ASN37      -0.0877
     77  N        -11.9460  -40.0180   26.4790 N.3    39  ASP39      -0.1225
     78  CA       -12.8470  -41.0380   25.9610 C.3    39  ASP39       0.1805
     79  C        -12.9860  -40.8870   24.4560 C.2    39  ASP39       0.2598
     80  O        -13.8370  -41.5000   23.8300 O.2    39  ASP39      -0.2718
     81  CB       -14.2170  -40.8880   26.6030 C.3    39  ASP39       0.1424
     82  CG       -14.7780  -39.4830   26.4550 C.2    39  ASP39       0.3668
     83  OD1      -15.9930  -39.3080   26.7030 O.co2  39  ASP39      -0.2456
     84  OD2      -14.0090  -38.5530   26.1010 O.co2  39  ASP39      -0.2456
     85  N        -12.1240  -40.0740   23.8790 N.am   40  THR40      -0.1953
     86  CA       -12.1570  -39.8030   22.4580 C.3    40  THR40       0.1897
     87  C        -11.0840  -40.5660   21.6940 C.2    40  THR40       0.2313
     88  O        -11.1380  -40.6910   20.4770 O.2    40  THR40      -0.2863
     89  CB       -11.9900  -38.2940   22.2570 C.3    40  THR40       0.1794
     90  OG1      -13.1910  -37.7580   21.7030 O.3    40  THR40      -0.2208
     91  CG2      -10.8040  -37.9780   21.3820 C.3    40  THR40       0.0378
     92  N        -13.8090  -31.7240   14.8440 N.3    75  SER75      -0.1217
     93  CA       -12.8990  -31.8360   15.9700 C.3    75  SER75       0.1889
     94  C        -13.0560  -33.2050   16.6450 C.2    75  SER75       0.2288
     95  O        -13.1200  -34.2290   15.9710 O.2    75  SER75      -0.2866
     96  CB       -13.2150  -30.7100   16.9540 C.3    75  SER75       0.2089
     97  OG       -12.2800  -30.6590   18.0060 O.3    75  SER75      -0.2183
     98  N        -10.5030  -28.4690   13.1890 N.3   103  ASP103     -0.1239
     99  CA        -9.7140  -28.3560   14.4230 C.3   103  ASP103      0.1674
    100  C         -8.8160  -29.5820   14.5870 C.2   103  ASP103      0.2266
    101  O         -9.2530  -30.6080   15.1000 O.2   103  ASP103     -0.2867
    102  CB       -10.6540  -28.2430   15.6160 C.3   103  ASP103      0.1410
    103  CG        -9.9310  -27.8860   16.8930 C.2   103  ASP103      0.3668
    104  OD1       -8.6940  -27.7230   16.8440 O.co2 103  ASP103     -0.2456
    105  OD2      -10.6040  -27.7680   17.9420 O.co2 103  ASP103     -0.2456
    106  N         -3.1000  -22.7910   17.6750 N.3   165  ARG165     -0.1245
    107  CA        -3.5950  -22.8710   19.0360 C.3   165  ARG165      0.1563
    108  C         -2.4770  -23.4230   19.9000 C.2   165  ARG165      0.2260
    109  O         -1.8780  -24.4560   19.5880 O.2   165  ARG165     -0.2867
    110  CB        -4.8260  -23.7670   19.1290 C.3   165  ARG165      0.0307
    111  CG        -6.1340  -22.9980   19.1060 C.3   165  ARG165      0.0489
    112  CD        -7.3420  -23.9330   19.1110 C.3   165  ARG165      0.2205
    113  NE        -8.6040  -23.2060   19.2540 N.pl3 165  ARG165     -0.0865
    114  CZ        -9.7920  -23.7930   19.3670 C.cat 165  ARG165      0.5346
    115  NH1      -10.8860  -23.0600   19.4960 N.pl3 165  ARG165      0.1354
    116  NH2       -9.8810  -25.1140   19.3500 N.pl3 165  ARG165      0.1354
    117  N         -4.1570  -18.1540   19.0280 N.3   196  GLU196     -0.1245
    118  CA        -5.0800  -18.2350   20.1450 C.3   196  GLU196      0.1567
    119  C         -4.5010  -19.0830   21.2630 C.2   196  GLU196      0.2260
    120  O         -4.3250  -20.2800   21.1020 O.2   196  GLU196     -0.2867
    121  CB        -6.3800  -18.8490   19.6490 C.3   196  GLU196      0.0388
    122  CG        -7.4670  -18.9990   20.6820 C.3   196  GLU196      0.1160
    123  CD        -8.6820  -19.7390   20.1240 C.2   196  GLU196      0.3649
    124  OE1       -9.7540  -19.6980   20.7720 O.co2 196  GLU196     -0.2457
    125  OE2       -8.5630  -20.3650   19.0400 O.co2 196  GLU196     -0.2457
    126  N         -4.5610  -21.0170   24.8480 N.3   198  LEU198     -0.1245
    127  CA        -5.5730  -21.6790   25.6560 C.3   198  LEU198      0.1561
    128  C         -5.0100  -22.1130   26.9830 C.2   198  LEU198      0.2260
    129  O         -4.0770  -22.9110   27.0370 O.2   198  LEU198     -0.2867
    130  CB        -6.1180  -22.9150   24.9430 C.3   198  LEU198      0.0270
    131  CG        -6.6190  -22.7260   23.5180 C.3   198  LEU198      0.0019
    132  CD1       -6.9860  -24.0740   22.9360 C.3   198  LEU198      0.0001
    133  CD2       -7.8040  -21.7810   23.5030 C.3   198  LEU198      0.0001
    134  N         -6.9450  -26.4190   31.7630 N.3   201  HIS201     -0.1241
    135  CA        -8.0360  -26.5180   32.7240 C.3   201  HIS201      0.1621
    136  C         -8.2060  -27.9650   33.1360 C.2   201  HIS201      0.2264
    137  O         -8.0780  -28.8660   32.3130 O.2   201  HIS201     -0.2867
    138  CB        -9.3320  -26.0220   32.0980 C.3   201  HIS201      0.0745
    139  CG        -9.6440  -26.6620   30.7820 C.ar  201  HIS201      0.0817
    140  ND1       -9.5190  -25.9950   29.5810 N.ar  201  HIS201     -0.2268
    141  CD2      -10.0510  -27.9170   30.4750 C.ar  201  HIS201      0.1154
    142  CE1       -9.8380  -26.8120   28.5910 C.ar  201  HIS201      0.1986
    143  NE2      -10.1630  -27.9840   29.1060 N.ar  201  HIS201     -0.2212
    144  N        -10.3220  -30.8100   33.6070 N.3   203  LEU203     -0.1231
    145  CA       -11.6520  -31.1510   33.1470 C.3   203  LEU203      0.1693
    146  C        -11.5160  -32.2790   32.1570 C.2   203  LEU203      0.2592
    147  O        -10.6880  -32.2170   31.2470 O.2   203  LEU203     -0.2718
    148  CB       -12.3040  -29.9560   32.4600 C.3   203  LEU203      0.0284
    149  CG       -13.6740  -29.5760   33.0180 C.3   203  LEU203      0.0019
    150  CD1      -14.2670  -28.5020   32.1440 C.3   203  LEU203      0.0001
    151  CD2      -14.5940  -30.7970   33.0720 C.3   203  LEU203      0.0001
    152  N        -12.3410  -33.3040   32.3360 N.am  204  GLY204     -0.1957
    153  CA       -12.2860  -34.4560   31.4640 C.3   204  GLY204      0.1869
    154  C        -11.3990  -35.4740   32.1420 C.2   204  GLY204      0.2309
    155  O        -10.9740  -36.4550   31.5250 O.2   204  GLY204     -0.2863
    156  N        -12.3280  -37.1390   34.9480 N.3   206  HIS206     -0.1226
    157  CA       -13.2230  -38.2420   35.2630 C.3   206  HIS206      0.1752
    158  C        -13.2560  -39.2110   34.0910 C.2   206  HIS206      0.2595
    159  O        -13.5530  -40.3880   34.2640 O.2   206  HIS206     -0.2718
    160  CB       -14.6300  -37.7190   35.5050 C.3   206  HIS206      0.0759
    161  CG       -15.2240  -37.0390   34.3100 C.ar  206  HIS206      0.0818
    162  ND1      -14.8730  -35.7610   33.9300 N.ar  206  HIS206     -0.2268
    163  CD2      -16.1150  -37.4750   33.3880 C.ar  206  HIS206      0.1154
    164  CE1      -15.5240  -35.4390   32.8250 C.ar  206  HIS206      0.1986
    165  NE2      -16.2840  -36.4610   32.4760 N.ar  206  HIS206     -0.2212
    166  N        -12.9710  -38.7050   32.8940 N.am  207  LYS207     -0.1980
    167  CA       -12.9630  -39.5480   31.7070 C.3   207  LYS207      0.1596
    168  C        -11.8110  -40.5370   31.8350 C.2   207  LYS207      0.2287
    169  O        -11.8960  -41.6700   31.3570 O.2   207  LYS207     -0.2864
    170  CB       -12.8060  -38.6960   30.4450 C.3   207  LYS207      0.0298
    171  CG       -13.9000  -37.6590   30.2790 C.3   207  LYS207      0.0038
    172  CD       -13.8270  -36.9700   28.9300 C.3   207  LYS207      0.0206
    173  CE       -14.8550  -35.8550   28.8150 C.3   207  LYS207      0.1093
    174  NZ       -14.8650  -35.2960   27.4390 N.3   207  LYS207     -0.1314
@<TRIPOS>BOND
     1    98    99    1
     2    99   100    1
     3    99   102    1
     4   100   101    2
     5    92    93    1
     6   102   103    1
     7    93    94    1
     8    93    96    1
     9    95    94    2
    10    43    42    2
    11   104   103   ar
    12   103   105   ar
    13    96    97    1
    14    48    49    1
    15    50    51    2
    16    50    49    1
    17    42    41    1
    18    49    52    1
    19   106   107    1
    20    20    19    2
    21    14    13    2
    22     1     2    1
    23    19    18    1
    24    44    41    1
    25    44    45    1
    26    41    40    1
    27    13    12    1
    28   117   118    1
    29   107   110    1
    30   107   108    1
    31   125   123   ar
    32   111   112    1
    33   111   110    1
    34   112   113    1
    35    17    18    1
    36    52    53    1
    37   113   114    2
    38   116   114    1
    39   114   115    1
    40    11    12    1
    41    11     3   am
    42     2     3    1
    43     2     5    1
    44   109   108    2
    45    40    35   am
    46   121   118    1
    47   121   122    1
    48    12    15    1
    49    53    54   ar
    50    53    55   ar
    51    18    21    1
    52     3     4    2
    53    54    56   ar
    54    55    57   ar
    55   123   122    1
    56   123   124   ar
    57    45    47   ar
    58    45    46   ar
    59   118   119    1
    60     5     6    1
    61    88    87    2
    62    21    22    1
    63    56    58   ar
    64    57    58   ar
    65    22    23    1
    66    35    36    2
    67    35    34    1
    68    29    28    2
    69    27    28    1
    70    27    26    1
    71    27    30    1
    72    28    33   am
    73   120   119    2
    74    15    16    1
    75    25    23   ar
    76    91    89    1
    77    33    34    1
    78    32    30    1
    79    34    37    1
    80    23    24   ar
    81    87    86    1
    82    90    89    1
    83     6     8   ar
    84     6     7   ar
    85    30    31    1
    86    89    86    1
    87    86    85    1
    88     8    10   ar
    89     7     9   ar
    90   132   131    1
    91    37    39    1
    92    37    38    1
    93    76    74   am
    94   133   131    1
    95   131   130    1
    96    10     9   ar
    97    80    79    2
    98    85    79   am
    99    74    73    1
   100    74    75    2
   101    73    70    1
   102    79    78    1
   103    72    71    2
   104   126   127    1
   105   130   127    1
   106    68    66   ar
   107    68    67   ar
   108   127   128    1
   109    71    70    1
   110    70    69    1
   111    66    64   ar
   112    78    77    1
   113    78    81    1
   114    67    65   ar
   115    84    82   ar
   116    82    81    1
   117    82    83   ar
   118    69    61   am
   119   128   129    2
   120    64    65   ar
   121    64    63    1
   122   174   173    1
   123    59    60    1
   124    61    62    2
   125    61    60    1
   126    60    63    1
   127   142   143   ar
   128   142   140   ar
   129   173   172    1
   130   172   171    1
   131   143   141   ar
   132   140   139   ar
   133   171   170    1
   134   170   167    1
   135   141   139   ar
   136   139   138    1
   137   147   146    2
   138   169   168    2
   139   153   154    1
   140   153   152    1
   141   155   154    2
   142   167   168    1
   143   167   166    1
   144   134   135    1
   145   138   135    1
   146   150   149    1
   147   146   152   am
   148   146   145    1
   149   137   136    2
   150   148   149    1
   151   148   145    1
   152   165   164   ar
   153   165   163   ar
   154   135   136    1
   155   164   162   ar
   156   166   158   am
   157   149   151    1
   158   145   144    1
   159   163   161   ar
   160   162   161   ar
   161   158   159    2
   162   158   157    1
   163   161   160    1
   164   156   157    1
   165   157   160    1
