@<TRIPOS>MOLECULE
tmp/3cb8A01.pdb
 197 191 0 0 0
SMALL
GASTEIGER

@<TRIPOS>ATOM
      1  N        -17.5120  -34.0120   17.0740 N.3    24  PHE24      -0.1241
      2  CA       -16.3140  -34.5790   17.6570 C.3    24  PHE24       0.1605
      3  C        -16.1370  -35.9920   17.1790 C.2    24  PHE24       0.2264
      4  O        -16.8400  -36.8930   17.6390 O.2    24  PHE24      -0.2867
      5  CB       -16.4180  -34.5870   19.1750 C.3    24  PHE24       0.0534
      6  CG       -16.6380  -33.2370   19.7690 C.ar   24  PHE24      -0.0203
      7  CD1      -17.9220  -32.7860   20.0380 C.ar   24  PHE24      -0.0042
      8  CD2      -15.5580  -32.4090   20.0540 C.ar   24  PHE24      -0.0042
      9  CE1      -18.1320  -31.5220   20.5870 C.ar   24  PHE24      -0.0003
     10  CE2      -15.7470  -31.1480   20.5980 C.ar   24  PHE24      -0.0003
     11  CZ       -17.0410  -30.7000   20.8690 C.ar   24  PHE24      -0.0000
     12  N         -8.0310  -40.9750   18.2830 N.3    28  CYS28      -0.1235
     13  CA        -6.9020  -40.0680   18.2670 C.3    28  CYS28       0.1677
     14  C         -5.6160  -40.8590   18.4860 C.2    28  CYS28       0.2270
     15  O         -5.5650  -41.7610   19.3170 O.2    28  CYS28      -0.2867
     16  CB        -7.0500  -39.0140   19.3540 C.3    28  CYS28       0.0956
     17  SG        -5.7700  -37.7370   19.2240 S.3    28  CYS28      -0.0801
     18  N         -1.9740  -36.5700   24.6260 N.3    32  CYS32      -0.1235
     19  CA        -1.7040  -35.3820   25.4160 C.3    32  CYS32       0.1677
     20  C         -2.0850  -35.6830   26.8610 C.2    32  CYS32       0.2270
     21  O         -3.0830  -36.3430   27.1280 O.2    32  CYS32      -0.2867
     22  CB        -2.5210  -34.2100   24.8870 C.3    32  CYS32       0.0956
     23  SG        -2.3410  -33.9710   23.0900 S.3    32  CYS32      -0.0801
     24  N         -3.0760  -33.5650   29.0580 N.3    34  TYR34      -0.1227
     25  CA        -4.1670  -32.7040   29.5050 C.3    34  TYR34       0.1736
     26  C         -5.5040  -32.9230   28.8070 C.2    34  TYR34       0.2596
     27  O         -6.5220  -32.3060   29.1670 O.2    34  TYR34      -0.2718
     28  CB        -3.7470  -31.2410   29.3620 C.3    34  TYR34       0.0548
     29  CG        -3.3050  -30.8740   27.9720 C.ar   34  TYR34      -0.0200
     30  CD1       -4.2340  -30.7420   26.9370 C.ar   34  TYR34      -0.0009
     31  CD2       -1.9530  -30.6860   27.6750 C.ar   34  TYR34      -0.0009
     32  CE1       -3.8300  -30.4350   25.6370 C.ar   34  TYR34       0.0417
     33  CE2       -1.5380  -30.3790   26.3810 C.ar   34  TYR34       0.0417
     34  CZ        -2.4860  -30.2570   25.3660 C.ar   34  TYR34       0.1957
     35  OH        -2.0900  -29.9680   24.0870 O.3    34  TYR34      -0.2866
     36  N         -5.4900  -33.8040   27.8130 N.am   35  CYS35      -0.1956
     37  CA        -6.6760  -34.1300   27.0360 C.3    35  CYS35       0.1843
     38  C         -7.9740  -34.2000   27.8330 C.2    35  CYS35       0.2625
     39  O         -8.1250  -35.0490   28.7150 O.2    35  CYS35      -0.2714
     40  CB        -6.4950  -35.4690   26.3360 C.3    35  CYS35       0.0997
     41  SG        -7.8650  -35.7730   25.1960 S.3    35  CYS35      -0.0797
     42  N         -8.9320  -33.3390   27.5100 N.am   36  HIS36      -0.1959
     43  CA       -10.1820  -33.3920   28.2460 C.3    36  HIS36       0.1787
     44  C        -11.1970  -34.3330   27.6080 C.2    36  HIS36       0.2620
     45  O        -12.2890  -34.5200   28.1380 O.2    36  HIS36      -0.2715
     46  CB       -10.7580  -31.9860   28.4530 C.3    36  HIS36       0.0785
     47  CG       -10.7790  -31.1420   27.2190 C.ar   36  HIS36       0.0821
     48  ND1      -10.8000  -29.7630   27.2660 N.ar   36  HIS36      -0.2267
     49  CD2      -10.8120  -31.4780   25.9060 C.ar   36  HIS36       0.1154
     50  CE1      -10.8450  -29.2850   26.0360 C.ar   36  HIS36       0.1986
     51  NE2      -10.8530  -30.3040   25.1920 N.ar   36  HIS36      -0.2212
     52  N        -10.8380  -34.9340   26.4780 N.am   37  ASN37      -0.1972
     53  CA       -11.7300  -35.8930   25.8270 C.3    37  ASN37       0.1688
     54  C        -10.9950  -37.2120   25.7770 C.2    37  ASN37       0.2292
     55  O        -10.8210  -37.7810   24.7040 O.2    37  ASN37      -0.2864
     56  CB       -12.0560  -35.4970   24.3820 C.3    37  ASN37       0.1181
     57  CG       -12.5900  -34.0960   24.2580 C.2    37  ASN37       0.2629
     58  OD1      -13.4890  -33.6880   24.9970 O.2    37  ASN37      -0.2716
     59  ND2      -12.0450  -33.3480   23.3070 N.am   37  ASN37      -0.0877
     60  N        -13.8090  -31.7240   14.8440 N.3    75  SER75      -0.1202
     61  CA       -12.8990  -31.8360   15.9700 C.3    75  SER75       0.2020
     62  C        -13.0560  -33.2050   16.6450 C.2    75  SER75       0.2619
     63  O        -13.1200  -34.2290   15.9710 O.2    75  SER75      -0.2717
     64  CB       -13.2150  -30.7100   16.9540 C.3    75  SER75       0.2103
     65  OG       -12.2800  -30.6590   18.0060 O.3    75  SER75      -0.2182
     66  N        -13.1210  -33.2040   17.9750 N.am   76  GLY76      -0.1942
     67  CA       -13.2990  -34.4270   18.7500 C.3    76  GLY76       0.2014
     68  C        -11.9930  -34.9930   19.2490 C.2    76  GLY76       0.2639
     69  O        -11.4540  -34.5520   20.2590 O.2    76  GLY76      -0.2714
     70  N        -11.5400  -36.0200   18.5420 N.am   77  GLY77      -0.1939
     71  CA       -10.2660  -36.6480   18.7930 C.3    77  GLY77       0.2014
     72  C         -9.5230  -36.0640   17.6130 C.2    77  GLY77       0.2638
     73  O         -9.3740  -34.8440   17.5450 O.2    77  GLY77      -0.2714
     74  N         -9.0810  -36.8940   16.6730 N.am   78  GLU78      -0.1977
     75  CA        -8.3960  -36.3660   15.5000 C.3    78  GLU78       0.1602
     76  C         -9.1970  -36.6040   14.2280 C.2    78  GLU78       0.2287
     77  O         -9.1650  -37.6900   13.6450 O.2    78  GLU78      -0.2864
     78  CB        -6.9980  -36.9580   15.3390 C.3    78  GLU78       0.0415
     79  CG        -6.2570  -36.3090   14.1790 C.3    78  GLU78       0.1163
     80  CD        -6.4290  -34.7800   14.1560 C.2    78  GLU78       0.3649
     81  OE1       -6.3940  -34.1830   13.0570 O.co2  78  GLU78      -0.2457
     82  OE2       -6.5970  -34.1700   15.2360 O.co2  78  GLU78      -0.2457
     83  N        -10.5030  -28.4690   13.1890 N.3   103  ASP103     -0.1225
     84  CA        -9.7140  -28.3560   14.4230 C.3   103  ASP103      0.1805
     85  C         -8.8160  -29.5820   14.5870 C.2   103  ASP103      0.2598
     86  O         -9.2530  -30.6080   15.1000 O.2   103  ASP103     -0.2718
     87  CB       -10.6540  -28.2430   15.6160 C.3   103  ASP103      0.1424
     88  CG        -9.9310  -27.8860   16.8930 C.2   103  ASP103      0.3668
     89  OD1       -8.6940  -27.7230   16.8440 O.co2 103  ASP103     -0.2456
     90  OD2      -10.6040  -27.7680   17.9420 O.co2 103  ASP103     -0.2456
     91  N         -7.5530  -29.4630   14.1960 N.am  104  THR104     -0.1939
     92  CA        -6.6440  -30.6040   14.2290 C.3   104  THR104      0.2028
     93  C         -5.2850  -30.4650   14.9490 C.2   104  THR104      0.2642
     94  O         -4.8700  -29.3780   15.3540 O.2   104  THR104     -0.2714
     95  CB        -6.3990  -31.0730   12.7570 C.3   104  THR104      0.1808
     96  OG1       -5.3990  -32.0960   12.7090 O.3   104  THR104     -0.2208
     97  CG2       -5.9410  -29.9090   11.9140 C.3   104  THR104      0.0379
     98  N         -4.6100  -31.6030   15.1120 N.am  105  ASN105     -0.1971
     99  CA        -3.2920  -31.6650   15.7250 C.3   105  ASN105      0.1688
    100  C         -2.2440  -31.8130   14.6010 C.2   105  ASN105      0.2292
    101  O         -1.0310  -31.8480   14.8440 O.2   105  ASN105     -0.2864
    102  CB        -3.2050  -32.8500   16.6870 C.3   105  ASN105      0.1181
    103  CG        -3.5180  -34.1740   16.0180 C.2   105  ASN105      0.2629
    104  OD1       -3.1310  -34.4200   14.8750 O.2   105  ASN105     -0.2716
    105  ND2       -4.2110  -35.0420   16.7390 N.am  105  ASN105     -0.0877
    106  N         -3.0550  -27.0430   16.0590 N.3   128  ASP128     -0.1239
    107  CA        -2.4760  -27.0270   17.3830 C.3   128  ASP128      0.1674
    108  C         -1.0010  -27.2890   17.2900 C.2   128  ASP128      0.2266
    109  O         -0.5710  -28.1870   16.5760 O.2   128  ASP128     -0.2867
    110  CB        -3.0820  -28.1220   18.2380 C.3   128  ASP128      0.1410
    111  CG        -4.0050  -27.5920   19.2860 C.2   128  ASP128      0.3668
    112  OD1       -5.0780  -27.0630   18.9190 O.co2 128  ASP128     -0.2456
    113  OD2       -3.6530  -27.7070   20.4860 O.co2 128  ASP128     -0.2456
    114  N          1.5490  -28.0330   20.0070 N.3   130  LYS130     -0.1245
    115  CA         1.6120  -28.3050   21.4310 C.3   130  LYS130      0.1561
    116  C          2.9470  -28.0500   22.1210 C.2   130  LYS130      0.2260
    117  O          2.9820  -27.7870   23.3240 O.2   130  LYS130     -0.2867
    118  CB         1.1140  -29.7390   21.6690 C.3   130  LYS130      0.0271
    119  CG        -0.3470  -29.8800   21.2520 C.3   130  LYS130      0.0035
    120  CD        -0.8470  -31.3080   21.1630 C.3   130  LYS130      0.0206
    121  CE        -2.2860  -31.3610   20.6210 C.3   130  LYS130      0.1093
    122  NZ        -3.3110  -30.7580   21.5200 N.3   130  LYS130     -0.1314
    123  N         -3.1000  -22.7910   17.6750 N.3   165  ARG165     -0.1245
    124  CA        -3.5950  -22.8710   19.0360 C.3   165  ARG165      0.1563
    125  C         -2.4770  -23.4230   19.9000 C.2   165  ARG165      0.2260
    126  O         -1.8780  -24.4560   19.5880 O.2   165  ARG165     -0.2867
    127  CB        -4.8260  -23.7670   19.1290 C.3   165  ARG165      0.0307
    128  CG        -6.1340  -22.9980   19.1060 C.3   165  ARG165      0.0489
    129  CD        -7.3420  -23.9330   19.1110 C.3   165  ARG165      0.2205
    130  NE        -8.6040  -23.2060   19.2540 N.pl3 165  ARG165     -0.0865
    131  CZ        -9.7920  -23.7930   19.3670 C.cat 165  ARG165      0.5346
    132  NH1      -10.8860  -23.0600   19.4960 N.pl3 165  ARG165      0.1354
    133  NH2       -9.8810  -25.1140   19.3500 N.pl3 165  ARG165      0.1354
    134  N         -1.9290  -24.4610   23.7470 N.3   167  VAL167     -0.1245
    135  CA        -2.4460  -24.6630   25.0910 C.3   167  VAL167      0.1561
    136  C         -1.3210  -24.4760   26.0860 C.2   167  VAL167      0.2260
    137  O         -0.3350  -25.2050   26.0680 O.2   167  VAL167     -0.2867
    138  CB        -3.0570  -26.0690   25.2600 C.3   167  VAL167      0.0252
    139  CG1       -3.2700  -26.3820   26.7410 C.3   167  VAL167      0.0019
    140  CG2       -4.3830  -26.1340   24.5290 C.3   167  VAL167      0.0019
    141  N         -4.5610  -21.0170   24.8480 N.3   198  LEU198     -0.1231
    142  CA        -5.5730  -21.6790   25.6560 C.3   198  LEU198      0.1678
    143  C         -5.0100  -22.1130   26.9830 C.2   198  LEU198      0.2434
    144  O         -4.0770  -22.9110   27.0370 O.2   198  LEU198     -0.2733
    145  CB        -6.1180  -22.9150   24.9430 C.3   198  LEU198      0.0284
    146  CG        -6.6190  -22.7260   23.5180 C.3   198  LEU198      0.0019
    147  CD1       -6.9860  -24.0740   22.9360 C.3   198  LEU198      0.0001
    148  CD2       -7.8040  -21.7810   23.5030 C.3   198  LEU198      0.0001
    149  N         -5.5780  -21.5960   28.0810 N.am  199  PRO199     -0.2718
    150  CA        -5.1460  -21.9280   29.4360 C.3   199  PRO199      0.1535
    151  C         -5.5550  -23.3520   29.7660 C.2   199  PRO199      0.2599
    152  O         -6.6710  -23.7820   29.4550 O.2   199  PRO199     -0.2715
    153  CB        -5.8950  -20.9160   30.2860 C.3   199  PRO199      0.0310
    154  CG        -7.1750  -20.7720   29.5580 C.3   199  PRO199      0.0237
    155  CD        -6.7080  -20.6510   28.1210 C.3   199  PRO199      0.0939
    156  N         -4.6500  -24.0960   30.3810 N.am  200  TYR200     -0.1960
    157  CA        -4.9780  -25.4500   30.7400 C.3   200  TYR200      0.1771
    158  C         -6.0720  -25.4170   31.7920 C.2   200  TYR200      0.2619
    159  O         -6.1230  -24.5030   32.6150 O.2   200  TYR200     -0.2715
    160  CB        -3.7580  -26.1570   31.2960 C.3   200  TYR200      0.0574
    161  CG        -4.1210  -27.2870   32.2120 C.ar  200  TYR200     -0.0198
    162  CD1       -4.2340  -27.0820   33.5890 C.ar  200  TYR200     -0.0009
    163  CD2       -4.3590  -28.5590   31.7090 C.ar  200  TYR200     -0.0009
    164  CE1       -4.5650  -28.1220   34.4410 C.ar  200  TYR200      0.0417
    165  CE2       -4.6980  -29.6110   32.5550 C.ar  200  TYR200      0.0417
    166  CZ        -4.7930  -29.3860   33.9170 C.ar  200  TYR200      0.1957
    167  OH        -5.0950  -30.4260   34.7560 O.3   200  TYR200     -0.2866
    168  N         -6.9450  -26.4190   31.7630 N.am  201  HIS201     -0.1973
    169  CA        -8.0360  -26.5180   32.7240 C.3   201  HIS201      0.1656
    170  C         -8.2060  -27.9650   33.1360 C.2   201  HIS201      0.2291
    171  O         -8.0780  -28.8660   32.3130 O.2   201  HIS201     -0.2864
    172  CB        -9.3320  -26.0220   32.0980 C.3   201  HIS201      0.0771
    173  CG        -9.6440  -26.6620   30.7820 C.ar  201  HIS201      0.0820
    174  ND1       -9.5190  -25.9950   29.5810 N.ar  201  HIS201     -0.2267
    175  CD2      -10.0510  -27.9170   30.4750 C.ar  201  HIS201      0.1154
    176  CE1       -9.8380  -26.8120   28.5910 C.ar  201  HIS201      0.1986
    177  NE2      -10.1630  -27.9840   29.1060 N.ar  201  HIS201     -0.2212
    178  N        -10.3220  -30.8100   33.6070 N.3   203  LEU203     -0.1245
    179  CA       -11.6520  -31.1510   33.1470 C.3   203  LEU203      0.1561
    180  C        -11.5160  -32.2790   32.1570 C.2   203  LEU203      0.2260
    181  O        -10.6880  -32.2170   31.2470 O.2   203  LEU203     -0.2867
    182  CB       -12.3040  -29.9560   32.4600 C.3   203  LEU203      0.0270
    183  CG       -13.6740  -29.5760   33.0180 C.3   203  LEU203      0.0019
    184  CD1      -14.2670  -28.5020   32.1440 C.3   203  LEU203      0.0001
    185  CD2      -14.5940  -30.7970   33.0720 C.3   203  LEU203      0.0001
    186  N         -4.7820  -39.6810   35.8640 N.3   215  TYR215     -0.1241
    187  CA        -4.6480  -38.3550   35.2910 C.3   215  TYR215      0.1605
    188  C         -3.4310  -37.7150   35.9550 C.2   215  TYR215      0.2264
    189  O         -3.5040  -37.2690   37.0950 O.2   215  TYR215     -0.2867
    190  CB        -5.9090  -37.5340   35.5760 C.3   215  TYR215      0.0534
    191  CG        -5.9140  -36.1570   34.9460 C.ar  215  TYR215     -0.0201
    192  CD1       -5.8580  -35.0080   35.7330 C.ar  215  TYR215     -0.0009
    193  CD2       -5.9750  -36.0020   33.5590 C.ar  215  TYR215     -0.0009
    194  CE1       -5.8630  -33.7400   35.1550 C.ar  215  TYR215      0.0417
    195  CE2       -5.9780  -34.7380   32.9710 C.ar  215  TYR215      0.0417
    196  CZ        -5.9210  -33.6140   33.7740 C.ar  215  TYR215      0.1957
    197  OH        -5.9070  -32.3660   33.1960 O.3   215  TYR215     -0.2866
@<TRIPOS>BOND
     1    97    95    1
     2    96    95    1
     3    95    92    1
     4    81    80   ar
     5    83    84    1
     6    77    76    2
     7    80    79    1
     8    80    82   ar
     9    79    78    1
    10    91    92    1
    11    91    85   am
    12    76    75    1
    13    92    93    1
    14    84    85    1
    15    84    87    1
    16    85    86    2
    17   100   101    2
    18   100    99    1
    19    60    61    1
    20   104   103    2
    21    93    98   am
    22    93    94    2
    23    98    99    1
    24    78    75    1
    25    75    74    1
    26    87    88    1
    27    99   102    1
    28    61    62    1
    29    61    64    1
    30    63    62    2
    31   103   102    1
    32   103   105   am
    33   106   107    1
    34   109   108    2
    35    62    66   am
    36    74    72   am
    37    89    88   ar
    38    88    90   ar
    39    64    65    1
    40     1     2    1
    41     3     4    2
    42     3     2    1
    43   108   107    1
    44   107   110    1
    45    73    72    2
    46    72    71    1
    47     2     5    1
    48   123   124    1
    49    66    67    1
    50   110   111    1
    51    13    12    1
    52    13    14    1
    53    13    16    1
    54    14    15    2
    55    70    71    1
    56    70    68   am
    57    67    68    1
    58   112   111   ar
    59   124   127    1
    60   124   125    1
    61   128   129    1
    62   128   127    1
    63   129   130    1
    64     5     6    1
    65    17    16    1
    66    68    69    2
    67   130   131    2
    68   111   113   ar
    69   133   131    1
    70   131   132    1
    71   126   125    2
    72     6     7   ar
    73     6     8   ar
    74   114   115    1
    75     7     9   ar
    76     8    10   ar
    77     9    11   ar
    78    10    11   ar
    79   121   120    1
    80   121   122    1
    81   120   119    1
    82   119   118    1
    83   115   118    1
    84   115   116    1
    85   116   117    2
    86   147   146    1
    87    23    22    1
    88    59    57   am
    89   148   146    1
    90   146   145    1
    91   134   135    1
    92    35    34    1
    93    57    56    1
    94    57    58    2
    95    56    53    1
    96   140   138    1
    97    18    19    1
    98    55    54    2
    99   141   142    1
   100    22    19    1
   101   145   142    1
   102   135   138    1
   103   135   136    1
   104    51    49   ar
   105    51    50   ar
   106    41    40    1
   107   138   139    1
   108    34    32   ar
   109    34    33   ar
   110    19    20    1
   111    32    30   ar
   112   142   143    1
   113    54    53    1
   114    53    52    1
   115    49    47   ar
   116    50    48   ar
   117   137   136    2
   118    40    37    1
   119    33    31   ar
   120    52    44   am
   121    20    21    2
   122    30    29   ar
   123   143   144    2
   124   143   149   am
   125    37    36    1
   126    37    38    1
   127    47    48   ar
   128    47    46    1
   129    42    38   am
   130    42    43    1
   131    44    45    2
   132    44    43    1
   133    31    29   ar
   134    36    26   am
   135    38    39    2
   136    29    28    1
   137   149   155    1
   138   149   150    1
   139   155   154    1
   140    43    46    1
   141   176   177   ar
   142   176   174   ar
   143    26    27    2
   144    26    25    1
   145    24    25    1
   146   177   175   ar
   147    28    25    1
   148   150   151    1
   149   150   153    1
   150   152   151    2
   151   154   153    1
   152   174   173   ar
   153   151   156   am
   154   156   157    1
   155   175   173   ar
   156   157   160    1
   157   157   158    1
   158   173   172    1
   159   181   180    2
   160   160   161    1
   161   163   161   ar
   162   163   165   ar
   163   168   158   am
   164   168   169    1
   165   158   159    2
   166   172   169    1
   167   184   183    1
   168   180   179    1
   169   161   162   ar
   170   171   170    2
   171   182   183    1
   172   182   179    1
   173   165   166   ar
   174   169   170    1
   175   195   193   ar
   176   195   196   ar
   177   183   185    1
   178   179   178    1
   179   197   196    1
   180   193   191   ar
   181   162   164   ar
   182   196   194   ar
   183   166   164   ar
   184   166   167    1
   185   191   190    1
   186   191   192   ar
   187   194   192   ar
   188   187   190    1
   189   187   186    1
   190   187   188    1
   191   188   189    2
