@<TRIPOS>MOLECULE
tmp/3cbfB00.pdb
 196 184 0 0 0
SMALL
GASTEIGER

@<TRIPOS>ATOM
      1  N          4.7780   -2.4760  -40.5670 N.3    18  ILE18      -0.1231
      2  CA         4.2680   -1.0890  -40.4700 C.3    18  ILE18       0.1692
      3  C          5.0770   -0.3310  -39.4120 C.2    18  ILE18       0.2591
      4  O          5.4850    0.8320  -39.6370 O.2    18  ILE18      -0.2718
      5  CB         2.7450   -1.0090  -40.1350 C.3    18  ILE18       0.0266
      6  CG1        1.9030   -1.5870  -41.2900 C.3    18  ILE18       0.0019
      7  CG2        2.3360    0.4800  -39.8570 C.3    18  ILE18       0.0020
      8  CD1        0.4760   -2.0900  -40.8750 C.3    18  ILE18       0.0001
      9  N          5.2970   -0.9730  -38.2610 N.am   19  ARG19      -0.1980
     10  CA         5.9870   -0.3410  -37.1280 C.3    19  ARG19       0.1597
     11  C          7.4240    0.0130  -37.5060 C.2    19  ARG19       0.2287
     12  O          7.9110    1.1240  -37.2290 O.2    19  ARG19      -0.2864
     13  CB         5.9550   -1.2620  -35.9040 C.3    19  ARG19       0.0334
     14  CG         4.5420   -1.3820  -35.2500 C.3    19  ARG19       0.0492
     15  CD         4.2770   -0.2890  -34.1930 C.3    19  ARG19       0.2205
     16  NE         3.9590    1.0470  -34.7150 N.pl3  19  ARG19      -0.0865
     17  CZ         4.4410    2.1710  -34.1790 C.cat  19  ARG19       0.5346
     18  NH1        4.1070    3.3530  -34.6700 N.pl3  19  ARG19       0.1354
     19  NH2        5.2700    2.1100  -33.1380 N.pl3  19  ARG19       0.1354
     20  N          8.0020    3.0330  -40.0600 N.3    22  LEU22      -0.1245
     21  CA         7.8980    4.3990  -39.5490 C.3    22  LEU22       0.1561
     22  C          9.2810    5.0380  -39.3550 C.2    22  LEU22       0.2260
     23  O          9.4570    6.2420  -39.5400 O.2    22  LEU22      -0.2867
     24  CB         7.1260    4.4380  -38.2390 C.3    22  LEU22       0.0270
     25  CG         6.8430    5.8660  -37.7500 C.3    22  LEU22       0.0019
     26  CD1        6.1520    6.7170  -38.8200 C.3    22  LEU22       0.0001
     27  CD2        5.9890    5.7730  -36.5310 C.3    22  LEU22       0.0001
     28  N          2.7150    3.5970  -43.4650 N.3    35  GLY35      -0.1210
     29  CA         1.7630    3.6610  -42.3450 C.3    35  GLY35       0.1956
     30  C          0.6230    4.6560  -42.5490 C.2    35  GLY35       0.2612
     31  O          0.7890    5.7070  -43.2080 O.2    35  GLY35      -0.2717
     32  N         -0.5450    4.3280  -41.9920 N.am   36  GLY36      -0.1942
     33  CA        -1.7360    5.1670  -42.0470 C.3    36  GLY36       0.2014
     34  C         -1.6230    6.3040  -41.0510 C.2    36  GLY36       0.2638
     35  O         -2.3830    6.3780  -40.0990 O.2    36  GLY36      -0.2714
     36  N         -0.6480    7.1700  -41.2780 N.am   37  LEU37      -0.1977
     37  CA        -0.4000    8.3140  -40.4040 C.3    37  LEU37       0.1596
     38  C         -1.2410    9.4830  -40.8840 C.2    37  LEU37       0.2287
     39  O         -1.1420    9.8540  -42.0640 O.2    37  LEU37      -0.2864
     40  CB         1.0860    8.6840  -40.4230 C.3    37  LEU37       0.0297
     41  CG         1.9520    8.0330  -39.3360 C.3    37  LEU37       0.0022
     42  CD1        2.0920    6.4870  -39.5000 C.3    37  LEU37       0.0001
     43  CD2        3.3230    8.6740  -39.2570 C.3    37  LEU37       0.0001
     44  N         -4.8010    3.0790  -27.0490 N.3    95  GLY95      -0.1210
     45  CA        -4.9480    2.7770  -28.4790 C.3    95  GLY95       0.1956
     46  C         -5.7970    1.5200  -28.6320 C.2    95  GLY95       0.2613
     47  O         -5.9230    0.7120  -27.6830 O.2    95  GLY95      -0.2717
     48  N         -6.4470    1.3840  -29.7830 N.am   96  SER96      -0.1938
     49  CA        -7.1750    0.1540  -30.0950 C.3    96  SER96       0.2055
     50  C         -6.2300   -1.0070  -30.2350 C.2    96  SER96       0.2642
     51  O         -6.6370   -2.1780  -30.0830 O.2    96  SER96      -0.2714
     52  CB        -8.0190    0.3030  -31.3570 C.3    96  SER96       0.2130
     53  OG        -9.2340    0.8740  -31.0070 O.3    96  SER96      -0.2179
     54  N         -4.9530   -0.7170  -30.5170 N.am   97  GLN97      -0.1976
     55  CA        -3.9690   -1.8230  -30.5520 C.3    97  GLN97       0.1601
     56  C         -3.9890   -2.5830  -29.1980 C.2    97  GLN97       0.2287
     57  O         -3.9450   -3.8230  -29.1630 O.2    97  GLN97      -0.2864
     58  CB        -2.5420   -1.3450  -30.8830 C.3    97  GLN97       0.0394
     59  CG        -1.5150   -2.5290  -30.9200 C.3    97  GLN97       0.0908
     60  CD        -1.8010   -3.5080  -32.0450 C.2    97  GLN97       0.2608
     61  OE1       -1.6590   -4.7340  -31.8810 O.2    97  GLN97      -0.2717
     62  NE2       -2.2310   -2.9900  -33.1740 N.am   97  GLN97      -0.0878
     63  N         -6.8210   -5.0480  -28.9810 N.3   100  LEU100     -0.1245
     64  CA        -6.4890   -6.2760  -29.7240 C.3   100  LEU100      0.1561
     65  C         -5.6890   -7.2100  -28.8720 C.2   100  LEU100      0.2260
     66  O         -5.9850   -8.4050  -28.8550 O.2   100  LEU100     -0.2867
     67  CB        -5.7330   -5.9930  -31.0260 C.3   100  LEU100      0.0270
     68  CG        -6.4770   -5.0450  -31.9900 C.3   100  LEU100      0.0019
     69  CD1       -5.5850   -4.7440  -33.1570 C.3   100  LEU100      0.0001
     70  CD2       -7.8530   -5.6210  -32.4710 C.3   100  LEU100      0.0001
     71  N         -5.7380   -6.5750  -40.7710 N.3   121  TYR121     -0.1241
     72  CA        -4.7720   -5.6660  -40.1610 C.3   121  TYR121      0.1605
     73  C         -3.6220   -6.4120  -39.4900 C.2   121  TYR121      0.2264
     74  O         -3.8360   -7.2210  -38.5970 O.2   121  TYR121     -0.2867
     75  CB        -5.5020   -4.7440  -39.1590 C.3   121  TYR121      0.0534
     76  CG        -4.5860   -3.9610  -38.2470 C.ar  121  TYR121     -0.0201
     77  CD1       -3.5090   -3.2300  -38.7600 C.ar  121  TYR121     -0.0009
     78  CD2       -4.8330   -3.9010  -36.8700 C.ar  121  TYR121     -0.0009
     79  CE1       -2.6740   -2.4870  -37.9140 C.ar  121  TYR121      0.0417
     80  CE2       -4.0020   -3.1760  -36.0200 C.ar  121  TYR121      0.0417
     81  CZ        -2.9350   -2.4750  -36.5470 C.ar  121  TYR121      0.1957
     82  OH        -2.1150   -1.7730  -35.6960 O.3   121  TYR121     -0.2866
     83  N        -12.6800  -11.6990  -36.0960 N.3   163  TYR163     -0.1241
     84  CA       -12.1500  -10.3130  -36.0910 C.3   163  TYR163      0.1605
     85  C        -12.4740   -9.7030  -37.4460 C.2   163  TYR163      0.2264
     86  O        -12.0710  -10.2600  -38.4830 O.2   163  TYR163     -0.2867
     87  CB       -10.6440  -10.3230  -35.8160 C.3   163  TYR163      0.0534
     88  CG       -10.0230   -8.9520  -35.9980 C.ar  163  TYR163     -0.0201
     89  CD1      -10.2500   -7.9450  -35.0570 C.ar  163  TYR163     -0.0009
     90  CD2       -9.2250   -8.6620  -37.1080 C.ar  163  TYR163     -0.0009
     91  CE1       -9.6960   -6.7080  -35.2200 C.ar  163  TYR163      0.0417
     92  CE2       -8.6620   -7.3720  -37.2850 C.ar  163  TYR163      0.0417
     93  CZ        -8.8940   -6.4170  -36.3510 C.ar  163  TYR163      0.1957
     94  OH        -8.3330   -5.1290  -36.4860 O.3   163  TYR163     -0.2866
     95  N        -13.2700   -5.9050  -39.7850 N.3   165  ILE165     -0.1245
     96  CA       -13.1990   -4.4560  -39.9380 C.3   165  ILE165      0.1561
     97  C        -14.1790   -4.1350  -41.0800 C.2   165  ILE165      0.2260
     98  O        -13.7540   -3.9380  -42.2160 O.2   165  ILE165     -0.2867
     99  CB       -11.7270   -3.9760  -40.2720 C.3   165  ILE165      0.0252
    100  CG1      -10.6880   -4.6410  -39.3540 C.3   165  ILE165      0.0019
    101  CG2      -11.5810   -2.3880  -40.2390 C.3   165  ILE165      0.0019
    102  CD1       -9.2600   -4.6810  -39.9900 C.3   165  ILE165      0.0001
    103  N         -8.8000   -2.4130  -43.1760 N.3   170  ASN170     -0.1240
    104  CA        -7.3570   -2.3230  -43.3140 C.3   170  ASN170      0.1653
    105  C         -6.9250   -3.7400  -43.6710 C.2   170  ASN170      0.2266
    106  O         -7.1220   -4.6410  -42.8690 O.2   170  ASN170     -0.2867
    107  CB        -6.7120   -1.8290  -42.0160 C.3   170  ASN170      0.1155
    108  CG        -5.2090   -1.6680  -42.1380 C.2   170  ASN170      0.2627
    109  OD1       -4.6130   -1.9540  -43.1840 O.2   170  ASN170     -0.2716
    110  ND2       -4.5850   -1.2600  -41.0760 N.am  170  ASN170     -0.0877
    111  N        -13.6980   -4.0620  -35.3060 N.3   198  ASP198     -0.1239
    112  CA       -12.7230   -2.9800  -35.2340 C.3   198  ASP198      0.1674
    113  C        -13.2010   -1.8250  -36.0910 C.2   198  ASP198      0.2266
    114  O        -13.2140   -1.9290  -37.3270 O.2   198  ASP198     -0.2867
    115  CB       -11.3410   -3.5140  -35.6630 C.3   198  ASP198      0.1410
    116  CG       -10.2190   -2.5410  -35.4030 C.2   198  ASP198      0.3668
    117  OD1      -10.4760   -1.3170  -35.3560 O.co2 198  ASP198     -0.2456
    118  OD2       -9.0500   -2.9800  -35.2480 O.co2 198  ASP198     -0.2456
    119  N        -11.9860    1.3750  -36.3830 N.3   200  ALA200     -0.1231
    120  CA       -11.0000    2.4630  -36.3860 C.3   200  ALA200      0.1694
    121  C        -11.3670    3.5930  -37.3610 C.2   200  ALA200      0.2592
    122  O        -11.1440    4.7810  -37.0740 O.2   200  ALA200     -0.2718
    123  CB        -9.5850    1.9170  -36.7150 C.3   200  ALA200      0.0304
    124  N        -11.9330    3.2100  -38.5040 N.am  201  TYR201     -0.1976
    125  CA       -12.1990    4.1690  -39.5990 C.3   201  TYR201      0.1639
    126  C        -13.6780    4.5150  -39.7030 C.2   201  TYR201      0.2290
    127  O        -14.0960    4.9800  -40.7480 O.2   201  TYR201     -0.2864
    128  CB       -11.6810    3.6060  -40.9410 C.3   201  TYR201      0.0560
    129  CG       -10.2320    3.2120  -40.8290 C.ar  201  TYR201     -0.0198
    130  CD1       -9.2100    4.1640  -40.9330 C.ar  201  TYR201     -0.0009
    131  CD2       -9.8830    1.8980  -40.5510 C.ar  201  TYR201     -0.0009
    132  CE1       -7.8860    3.8110  -40.7540 C.ar  201  TYR201      0.0417
    133  CE2       -8.5490    1.5420  -40.3810 C.ar  201  TYR201      0.0417
    134  CZ        -7.5640    2.4830  -40.5060 C.ar  201  TYR201      0.1957
    135  OH        -6.2580    2.0990  -40.3290 O.3   201  TYR201     -0.2866
    136  N        -11.4560    4.1570  -31.8190 N.3   231  SER231     -0.1217
    137  CA       -10.2160    4.8620  -31.4950 C.3   231  SER231      0.1889
    138  C        -10.2830    6.3520  -31.8160 C.2   231  SER231      0.2288
    139  O        -10.9580    6.7660  -32.7650 O.2   231  SER231     -0.2866
    140  CB        -9.0520    4.2440  -32.2700 C.3   231  SER231      0.2089
    141  OG        -7.8250    4.8640  -31.9300 O.3   231  SER231     -0.2183
    142  N         -7.5190    7.7410  -32.6630 N.3   233  SER233     -0.1202
    143  CA        -6.3220    7.8700  -33.4720 C.3   233  SER233      0.2020
    144  C         -6.5780    8.5600  -34.8330 C.2   233  SER233      0.2618
    145  O         -5.8600    9.5340  -35.1830 O.2   233  SER233     -0.2717
    146  CB        -5.6630    6.4940  -33.6450 C.3   233  SER233      0.2103
    147  OG        -5.0900    6.1050  -32.4250 O.3   233  SER233     -0.2182
    148  N         -7.6060    8.1260  -35.5610 N.am  234  LYS234     -0.1979
    149  CA        -7.7760    8.5680  -36.9630 C.3   234  LYS234      0.1596
    150  C         -8.5610    9.8650  -37.0610 C.2   234  LYS234      0.2287
    151  O         -8.6030   10.5090  -38.1280 O.2   234  LYS234     -0.2864
    152  CB        -8.3910    7.4580  -37.8410 C.3   234  LYS234      0.0298
    153  CG        -7.5950    6.0990  -37.8550 C.3   234  LYS234      0.0038
    154  CD        -6.0770    6.2910  -37.9710 C.3   234  LYS234      0.0206
    155  CE        -5.2890    4.9980  -38.2750 C.3   234  LYS234      0.1093
    156  NZ        -5.4800    3.9000  -37.2770 N.3   234  LYS234     -0.1314
    157  N         -3.2090   10.0210  -33.1710 N.3   238  PRO238     -0.2116
    158  CA        -2.7140    8.6760  -32.8880 C.3   238  PRO238      0.1372
    159  C         -1.7140    8.6540  -31.7530 C.2   238  PRO238      0.2244
    160  O         -1.6930    7.7090  -30.9780 O.2   238  PRO238     -0.2868
    161  CB        -1.9990    8.2740  -34.1810 C.3   238  PRO238      0.0268
    162  CG        -2.4080    9.2140  -35.1830 C.3   238  PRO238      0.0207
    163  CD        -2.7650   10.4800  -34.4950 C.3   238  PRO238      0.0892
    164  N         -2.4870    7.9480  -27.9330 N.3   241  ARG241     -0.1245
    165  CA        -2.9020    6.5760  -27.6120 C.3   241  ARG241      0.1563
    166  C         -4.1400    6.4840  -26.7270 C.2   241  ARG241      0.2260
    167  O         -4.0350    6.1100  -25.5470 O.2   241  ARG241     -0.2867
    168  CB        -1.7670    5.7850  -26.9440 C.3   241  ARG241      0.0307
    169  CG        -0.3470    6.0020  -27.4790 C.3   241  ARG241      0.0489
    170  CD        -0.0770    5.5660  -28.9070 C.3   241  ARG241      0.2205
    171  NE        -0.4930    4.1740  -29.1620 N.pl3 241  ARG241     -0.0865
    172  CZ        -1.4810    3.8170  -30.0000 C.cat 241  ARG241      0.5346
    173  NH1       -2.1880    4.7190  -30.6600 N.pl3 241  ARG241      0.1354
    174  NH2       -1.7580    2.5090  -30.1860 N.pl3 241  ARG241      0.1354
    175  N         -6.7820    3.9110  -47.2350 N.3   322  PHE322     -0.1241
    176  CA        -6.0020    2.9140  -48.0040 C.3   322  PHE322      0.1605
    177  C         -6.5270    2.5440  -49.3950 C.2   322  PHE322      0.2264
    178  O         -7.7340    2.5270  -49.6420 O.2   322  PHE322     -0.2867
    179  CB        -5.8920    1.6270  -47.2030 C.3   322  PHE322      0.0534
    180  CG        -5.3350    1.8230  -45.8440 C.ar  322  PHE322     -0.0203
    181  CD1       -4.0530    2.3160  -45.6760 C.ar  322  PHE322     -0.0042
    182  CD2       -6.0930    1.4940  -44.7270 C.ar  322  PHE322     -0.0042
    183  CE1       -3.5290    2.4910  -44.4030 C.ar  322  PHE322     -0.0003
    184  CE2       -5.5770    1.6520  -43.4400 C.ar  322  PHE322     -0.0003
    185  CZ        -4.2840    2.1770  -43.2820 C.ar  322  PHE322     -0.0000
    186  N         -0.1200   -2.4570  -49.9090 N.3   364  ARG364     -0.1245
    187  CA        -1.0320   -1.4370  -49.4050 C.3   364  ARG364      0.1563
    188  C         -0.4450   -0.0500  -49.6120 C.2   364  ARG364      0.2260
    189  O          0.7470    0.1890  -49.3450 O.2   364  ARG364     -0.2867
    190  CB        -1.3590   -1.6590  -47.9110 C.3   364  ARG364      0.0307
    191  CG        -2.5420   -0.8200  -47.3920 C.3   364  ARG364      0.0489
    192  CD        -2.6240   -0.8460  -45.8580 C.3   364  ARG364      0.2205
    193  NE        -1.5600   -0.0630  -45.2530 N.pl3 364  ARG364     -0.0865
    194  CZ        -1.3780    0.1290  -43.9390 C.cat 364  ARG364      0.5346
    195  NH1       -2.1720   -0.4200  -43.0210 N.pl3 364  ARG364      0.1354
    196  NH2       -0.3950    0.8960  -43.5440 N.pl3 364  ARG364      0.1354
@<TRIPOS>BOND
     1   186   187    1
     2   178   177    2
     3   188   187    1
     4   188   189    2
     5   187   190    1
     6   177   176    1
     7   176   175    1
     8   176   179    1
     9   190   191    1
    10   191   192    1
    11   179   180    1
    12   192   193    1
    13   180   181   ar
    14   180   182   ar
    15   181   183   ar
    16   193   194    2
    17   182   184   ar
    18   183   185   ar
    19   194   196    1
    20   194   195    1
    21   105   104    1
    22   105   106    2
    23    28    29    1
    24   184   185   ar
    25   104   103    1
    26   104   107    1
    27    31    30    2
    28   109   108    2
    29    30    29    1
    30    30    32   am
    31    98    97    2
    32   108   107    1
    33   108   110   am
    34    39    38    2
    35    33    32    1
    36    33    34    1
    37     6     8    1
    38     6     5    1
    39    36    34   am
    40    36    37    1
    41    97    96    1
    42    34    35    2
    43   128   129    1
    44   128   125    1
    45   130   129   ar
    46   130   132   ar
    47    38    37    1
    48   129   131   ar
    49    71    72    1
    50   132   134   ar
    51   127   126    2
    52     1     2    1
    53   131   133   ar
    54   134   133   ar
    55   134   135    1
    56     2     5    1
    57     2     3    1
    58    40    37    1
    59    40    41    1
    60    99   101    1
    61    99    96    1
    62    99   100    1
    63    72    73    1
    64    72    75    1
    65     5     7    1
    66    20    21    1
    67   102   100    1
    68    96    95    1
    69   126   125    1
    70     4     3    2
    71   125   124    1
    72    21    22    1
    73    21    24    1
    74    23    22    2
    75    42    41    1
    76    73    74    2
    77     3     9   am
    78    41    43    1
    79    75    76    1
    80    26    25    1
    81    77    76   ar
    82    77    79   ar
    83   124   121   am
    84    86    85    2
    85   155   154    1
    86   155   156    1
    87     9    10    1
    88    76    78   ar
    89    24    25    1
    90   151   150    2
    91   154   153    1
    92    79    81   ar
    93   153   152    1
    94   152   149    1
    95    25    27    1
    96    11    12    2
    97    11    10    1
    98    85    84    1
    99   121   122    2
   100   121   120    1
   101   114   113    2
   102    92    90   ar
   103    92    93   ar
   104    10    13    1
   105    90    88   ar
   106   150   149    1
   107   149   148    1
   108    78    80   ar
   109   123   120    1
   110    81    80   ar
   111    81    82    1
   112    94    93    1
   113   120   119    1
   114    93    91   ar
   115    83    84    1
   116   113   112    1
   117    84    87    1
   118    88    87    1
   119    88    89   ar
   120    13    14    1
   121   115   116    1
   122   115   112    1
   123   148   144   am
   124   116   117   ar
   125   116   118   ar
   126   111   112    1
   127    14    15    1
   128    91    89   ar
   129   145   144    2
   130   162   163    1
   131   162   161    1
   132   144   143    1
   133    16    15    1
   134    16    17    2
   135    18    17    1
   136   163   157    1
   137   161   158    1
   138    17    19    1
   139   146   143    1
   140   146   147    1
   141   143   142    1
   142    62    60   am
   143   157   158    1
   144    69    68    1
   145   158   159    1
   146   139   138    2
   147    70    68    1
   148   140   141    1
   149   140   137    1
   150    60    61    2
   151    60    59    1
   152    68    67    1
   153   136   137    1
   154   138   137    1
   155   159   160    2
   156    52    53    1
   157    52    49    1
   158    67    64    1
   159    59    58    1
   160    58    55    1
   161   173   172    1
   162    55    54    1
   163    55    56    1
   164    54    50   am
   165    50    49    1
   166    50    51    2
   167   174   172    1
   168    49    48    1
   169   172   171    2
   170    48    46   am
   171    64    63    1
   172    64    65    1
   173    56    57    2
   174   171   170    1
   175   170   169    1
   176    65    66    2
   177    46    45    1
   178    46    47    2
   179    45    44    1
   180   164   165    1
   181   165   168    1
   182   165   166    1
   183   169   168    1
   184   166   167    2
