@<TRIPOS>MOLECULE
tmp/3cbgA02.pdb
 94 91 0 0 0
SMALL
GASTEIGER

@<TRIPOS>ATOM
      1  N        -41.1560    3.2420   -4.8830 N.3     1  LYS1       -0.1245
      2  CA       -41.8220    2.9290   -3.5840 C.3     1  LYS1        0.1561
      3  C        -43.2590    3.4670   -3.4750 C.2     1  LYS1        0.2260
      4  O        -43.9070    3.3230   -2.4280 O.2     1  LYS1       -0.2867
      5  CB       -40.9890    3.4820   -2.4240 C.3     1  LYS1        0.0271
      6  CG       -40.6330    4.9480   -2.5560 C.3     1  LYS1        0.0035
      7  CD       -40.2040    5.5370   -1.2170 C.3     1  LYS1        0.0206
      8  CE       -39.0160    4.8040   -0.6190 C.3     1  LYS1        0.1093
      9  NZ       -38.4290    5.5680    0.5150 N.3     1  LYS1       -0.1314
     10  N        -34.3210    0.7410   -2.9060 N.3    39  PRO39      -0.2102
     11  CA       -35.6650    0.9890   -2.3530 C.3    39  PRO39       0.1504
     12  C        -35.6940    2.0260   -1.2120 C.2    39  PRO39       0.2575
     13  O        -36.7510    2.5740   -0.8870 O.2    39  PRO39      -0.2718
     14  CB       -36.1000   -0.3990   -1.8680 C.3    39  PRO39       0.0282
     15  CG       -35.4260   -1.3160   -2.8410 C.3    39  PRO39       0.0208
     16  CD       -34.0420   -0.7100   -2.9480 C.3    39  PRO39       0.0893
     17  N        -34.5360    2.2750   -0.6010 N.am   40  MET40      -0.1980
     18  CA       -34.4160    3.2430    0.4920 C.3    40  MET40       0.1605
     19  C        -34.4910    4.6750   -0.0160 C.2    40  MET40       0.2287
     20  O        -34.8360    5.5790    0.7400 O.2    40  MET40      -0.2864
     21  CB       -33.0790    3.1010    1.2250 C.3    40  MET40       0.0413
     22  CG       -32.9210    1.9200    2.1590 C.3    40  MET40       0.0598
     23  SD       -31.4660    2.2220    3.1960 S.3    40  MET40      -0.1393
     24  CE       -30.1770    2.4060    1.9420 C.3    40  MET40       0.0692
     25  N        -32.9830   11.9160    6.7680 N.3   141  ASP141     -0.1225
     26  CA       -33.3970   10.6990    6.0910 C.3   141  ASP141      0.1805
     27  C        -32.3760    9.5600    6.2510 C.2   141  ASP141      0.2597
     28  O        -31.9610    8.9320    5.2740 O.2   141  ASP141     -0.2718
     29  CB       -33.6280   11.0340    4.6120 C.3   141  ASP141      0.1424
     30  CG       -34.2520    9.9000    3.8430 C.2   141  ASP141      0.3668
     31  OD1      -35.1130    9.2050    4.4130 O.co2 141  ASP141     -0.2456
     32  OD2      -33.8920    9.7140    2.6630 O.co2 141  ASP141     -0.2456
     33  N        -31.9870    9.2960    7.4950 N.am  142  ALA142     -0.1979
     34  CA       -31.0230    8.2450    7.7990 C.3   142  ALA142      0.1597
     35  C        -31.6290    7.2200    8.7570 C.2   142  ALA142      0.2287
     36  O        -32.8310    6.9450    8.7070 O.2   142  ALA142     -0.2864
     37  CB       -29.7590    8.8610    8.4130 C.3   142  ALA142      0.0319
     38  N        -33.4660    5.6230   11.4850 N.3   144  LYS144     -0.1245
     39  CA       -34.6180    6.0830   12.2530 C.3   144  LYS144      0.1561
     40  C        -34.4180    6.1490   13.7610 C.2   144  LYS144      0.2260
     41  O        -35.0220    6.9810   14.4390 O.2   144  LYS144     -0.2867
     42  CB       -35.8380    5.2110   11.9250 C.3   144  LYS144      0.0271
     43  CG       -36.0260    4.9120   10.4310 C.3   144  LYS144      0.0035
     44  CD       -35.8430    6.1610    9.5560 C.3   144  LYS144      0.0206
     45  CE       -35.9020    5.8200    8.0670 C.3   144  LYS144      0.1093
     46  NZ       -35.3330    6.8960    7.1950 N.3   144  LYS144     -0.1314
     47  N        -38.1630   12.3930    6.4500 N.3   167  ASP167     -0.1225
     48  CA       -38.7820   11.3330    5.6660 C.3   167  ASP167      0.1805
     49  C        -39.0630   10.0700    6.4810 C.2   167  ASP167      0.2597
     50  O        -38.4560    9.8500    7.5230 O.2   167  ASP167     -0.2718
     51  CB       -37.9110   10.9820    4.4610 C.3   167  ASP167      0.1424
     52  CG       -38.6420   10.1060    3.4550 C.2   167  ASP167      0.3668
     53  OD1      -39.8030   10.4150    3.1170 O.co2 167  ASP167     -0.2456
     54  OD2      -38.0600    9.1130    2.9900 O.co2 167  ASP167     -0.2456
     55  N        -40.0000    9.2600    5.9880 N.am  168  ASN168     -0.1974
     56  CA       -40.4140    7.9990    6.6110 C.3   168  ASN168      0.1688
     57  C        -41.2690    8.1410    7.8630 C.2   168  ASN168      0.2292
     58  O        -41.1970    7.3010    8.7580 O.2   168  ASN168     -0.2864
     59  CB       -39.2030    7.1290    6.9360 C.3   168  ASN168      0.1181
     60  CG       -38.3810    6.8040    5.7150 C.2   168  ASN168      0.2629
     61  OD1      -37.3080    7.3640    5.5160 O.2   168  ASN168     -0.2716
     62  ND2      -38.8830    5.9070    4.8800 N.am  168  ASN168     -0.0877
     63  N        -43.7870    5.3280    7.9900 N.3   171  TRP171     -0.1227
     64  CA       -43.0520    4.0560    8.0490 C.3   171  TRP171      0.1737
     65  C        -43.8070    2.7880    7.6360 C.2   171  TRP171      0.2595
     66  O        -44.1740    1.9620    8.4750 O.2   171  TRP171     -0.2718
     67  CB       -42.4920    3.8790    9.4640 C.3   171  TRP171      0.0564
     68  CG       -41.4120    2.8480    9.6000 C.ar  171  TRP171      0.0003
     69  CD1      -41.3850    1.8020   10.4820 C.ar  171  TRP171      0.0946
     70  CD2      -40.1810    2.7800    8.8620 C.ar  171  TRP171      0.0152
     71  NE1      -40.2170    1.0880   10.3390 N.ar  171  TRP171     -0.2442
     72  CE2      -39.4600    1.6640    9.3520 C.ar  171  TRP171      0.0810
     73  CE3      -39.6160    3.5520    7.8360 C.ar  171  TRP171      0.0012
     74  CZ2      -38.2020    1.2990    8.8480 C.ar  171  TRP171      0.0191
     75  CZ3      -38.3610    3.1870    7.3340 C.ar  171  TRP171      0.0001
     76  CH2      -37.6720    2.0710    7.8420 C.ar  171  TRP171      0.0015
     77  N        -44.0300    2.6460    6.3360 N.am  172  HIS172     -0.1975
     78  CA       -44.7140    1.4890    5.7680 C.3   172  HIS172      0.1656
     79  C        -46.0440    1.1330    6.4310 C.2   172  HIS172      0.2291
     80  O        -46.4700   -0.0210    6.4040 O.2   172  HIS172     -0.2864
     81  CB       -43.7700    0.2850    5.7940 C.3   172  HIS172      0.0771
     82  CG       -42.4100    0.5910    5.2530 C.ar  172  HIS172      0.0820
     83  ND1      -41.4560    1.2670    5.9820 N.ar  172  HIS172     -0.2267
     84  CD2      -41.8650    0.3750    4.0330 C.ar  172  HIS172      0.1154
     85  CE1      -40.3840    1.4550    5.2360 C.ar  172  HIS172      0.1986
     86  NE2      -40.6060    0.9240    4.0480 N.ar  172  HIS172     -0.2212
     87  N        -42.7200    7.5420    1.5060 N.3   210  ASP210     -0.1239
     88  CA       -43.0690    6.9030    2.7730 C.3   210  ASP210      0.1674
     89  C        -43.4840    7.9070    3.8510 C.2   210  ASP210      0.2266
     90  O        -43.3030    7.6620    5.0490 O.2   210  ASP210     -0.2867
     91  CB       -41.8930    6.0560    3.2770 C.3   210  ASP210      0.1410
     92  CG       -42.2610    5.2060    4.4760 C.2   210  ASP210      0.3668
     93  OD1      -43.3600    4.6170    4.4680 O.co2 210  ASP210     -0.2456
     94  OD2      -41.4560    5.1140    5.4180 O.co2 210  ASP210     -0.2456
@<TRIPOS>BOND
     1     1     2    1
     2     2     3    1
     3     2     5    1
     4     3     4    2
     5    16    10    1
     6    16    15    1
     7    10    11    1
     8    15    14    1
     9     6     5    1
    10     6     7    1
    11    11    14    1
    12    11    12    1
    13     7     8    1
    14    12    13    2
    15    12    17   am
    16     8     9    1
    17    17    18    1
    18    19    18    1
    19    19    20    2
    20    18    21    1
    21    21    22    1
    22    87    88    1
    23    24    23    1
    24    22    23    1
    25    32    30   ar
    26    88    91    1
    27    88    89    1
    28    54    52   ar
    29    53    52   ar
    30    91    92    1
    31    52    51    1
    32    30    31   ar
    33    30    29    1
    34    89    90    2
    35    84    86   ar
    36    84    82   ar
    37    86    85   ar
    38    51    48    1
    39    93    92   ar
    40    92    94   ar
    41    29    26    1
    42    62    60   am
    43    85    83   ar
    44    82    81    1
    45    82    83   ar
    46    28    27    2
    47    61    60    2
    48    48    47    1
    49    48    49    1
    50    60    59    1
    51    78    81    1
    52    78    77    1
    53    78    79    1
    54    55    49   am
    55    55    56    1
    56    26    27    1
    57    26    25    1
    58    27    33   am
    59    77    65   am
    60    80    79    2
    61    49    50    2
    62    56    59    1
    63    56    57    1
    64    46    45    1
    65    75    73   ar
    66    75    76   ar
    67    33    34    1
    68    65    64    1
    69    65    66    2
    70    34    37    1
    71    34    35    1
    72    73    70   ar
    73    76    74   ar
    74    57    58    2
    75    63    64    1
    76    64    67    1
    77    45    44    1
    78    36    35    2
    79    74    72   ar
    80    70    72   ar
    81    70    68   ar
    82    72    71   ar
    83    67    68    1
    84    44    43    1
    85    68    69   ar
    86    71    69   ar
    87    43    42    1
    88    38    39    1
    89    42    39    1
    90    39    40    1
    91    40    41    2
