@<TRIPOS>MOLECULE
tmp/3cbgA00.pdb
 181 177 0 0 0
SMALL
GASTEIGER

@<TRIPOS>ATOM
      1  N        -34.5360    2.2750   -0.6010 N.3    40  MET40      -0.1230
      2  CA       -34.4160    3.2430    0.4920 C.3    40  MET40       0.1702
      3  C        -34.4910    4.6750   -0.0160 C.2    40  MET40       0.2592
      4  O        -34.8360    5.5790    0.7400 O.2    40  MET40      -0.2718
      5  CB       -33.0790    3.1010    1.2250 C.3    40  MET40       0.0401
      6  CG       -32.9210    1.9200    2.1590 C.3    40  MET40       0.0596
      7  SD       -31.4660    2.2220    3.1960 S.3    40  MET40      -0.1393
      8  CE       -30.1770    2.4060    1.9420 C.3    40  MET40       0.0692
      9  N        -34.1410    4.8850   -1.2830 N.am   41  GLN41      -0.1966
     10  CA       -34.1600    6.2270   -1.8650 C.3    41  GLN41       0.1733
     11  C        -35.5660    6.8230   -1.9130 C.2    41  GLN41       0.2616
     12  O        -36.5580    6.0960   -2.0660 O.2    41  GLN41      -0.2715
     13  CB       -33.6160    6.2250   -3.2970 C.3    41  GLN41       0.0408
     14  CG       -32.1970    5.7360   -3.4850 C.3    41  GLN41       0.0908
     15  CD       -31.7160    5.9510   -4.9130 C.2    41  GLN41       0.2608
     16  OE1      -32.5070    5.8900   -5.8580 O.2    41  GLN41      -0.2717
     17  NE2      -30.4210    6.1900   -5.0780 N.am   41  GLN41      -0.0878
     18  N        -35.6430    8.1480   -1.7930 N.am   42  ILE42      -0.1977
     19  CA       -36.9230    8.8330   -1.8660 C.3    42  ILE42       0.1596
     20  C        -37.4610    8.5760   -3.2660 C.2    42  ILE42       0.2287
     21  O        -36.6920    8.3600   -4.2050 O.2    42  ILE42      -0.2864
     22  CB       -36.7880   10.3660   -1.6610 C.3    42  ILE42       0.0276
     23  CG1      -35.8660   10.9710   -2.7250 C.3    42  ILE42       0.0022
     24  CG2      -36.3010   10.6570   -0.2560 C.3    42  ILE42       0.0022
     25  CD1      -35.7690   12.4660   -2.6570 C.3    42  ILE42       0.0001
     26  N        -28.2580   11.4240    5.6310 N.3    66  GLY66      -0.1210
     27  CA       -28.7470   10.2350    4.9560 C.3    66  GLY66       0.1956
     28  C        -28.6090   10.5240    3.4730 C.2    66  GLY66       0.2612
     29  O        -29.5560   10.9730    2.8270 O.2    66  GLY66      -0.2717
     30  N        -27.4160   10.2690    2.9410 N.am   67  VAL67      -0.1965
     31  CA       -27.0970   10.5480    1.5420 C.3    67  VAL67       0.1727
     32  C        -27.2850    9.3890    0.5660 C.2    67  VAL67       0.2616
     33  O        -27.9480    9.5350   -0.4670 O.2    67  VAL67      -0.2715
     34  CB       -25.6260   11.0700    1.4250 C.3    67  VAL67       0.0290
     35  CG1      -25.2020   11.1830   -0.0380 C.3    67  VAL67       0.0023
     36  CG2      -25.5040   12.4210    2.1160 C.3    67  VAL67       0.0023
     37  N        -26.6950    8.2450    0.9030 N.am   68  PHE68      -0.1974
     38  CA       -26.7290    7.0490    0.0670 C.3    68  PHE68       0.1639
     39  C        -26.0020    7.3010   -1.2640 C.2    68  PHE68       0.2290
     40  O        -24.8710    7.7950   -1.2610 O.2    68  PHE68      -0.2864
     41  CB       -28.1720    6.5870   -0.1720 C.3    68  PHE68       0.0560
     42  CG       -28.2760    5.1710   -0.6800 C.ar   68  PHE68      -0.0200
     43  CD1      -27.4590    4.1680   -0.1570 C.ar   68  PHE68      -0.0042
     44  CD2      -29.1970    4.8350   -1.6600 C.ar   68  PHE68      -0.0042
     45  CE1      -27.5610    2.8570   -0.6070 C.ar   68  PHE68      -0.0003
     46  CE2      -29.3060    3.5240   -2.1140 C.ar   68  PHE68      -0.0003
     47  CZ       -28.4880    2.5350   -1.5880 C.ar   68  PHE68      -0.0000
     48  N        -28.9970   10.5420   -4.7480 N.3    71  TYR71      -0.1227
     49  CA       -30.2050   10.9510   -5.4750 C.3    71  TYR71       0.1736
     50  C        -30.9080   12.2040   -4.9210 C.2    71  TYR71       0.2596
     51  O        -31.1220   13.1730   -5.6600 O.2    71  TYR71      -0.2718
     52  CB       -31.1930    9.7760   -5.5440 C.3    71  TYR71       0.0548
     53  CG       -32.4530   10.0240   -6.3660 C.ar   71  TYR71      -0.0200
     54  CD1      -33.7040   10.1070   -5.7430 C.ar   71  TYR71      -0.0009
     55  CD2      -32.4030   10.1210   -7.7610 C.ar   71  TYR71      -0.0009
     56  CE1      -34.8730   10.2680   -6.4790 C.ar   71  TYR71       0.0417
     57  CE2      -33.5750   10.2870   -8.5150 C.ar   71  TYR71       0.0417
     58  CZ       -34.8110   10.3540   -7.8600 C.ar   71  TYR71       0.1957
     59  OH       -35.9880   10.4770   -8.5730 O.3    71  TYR71      -0.2866
     60  N        -31.2640   12.1820   -3.6330 N.am   72  SER72      -0.1952
     61  CA       -31.9530   13.3050   -2.9890 C.3    72  SER72       0.1924
     62  C        -31.0830   14.5570   -2.9570 C.2    72  SER72       0.2314
     63  O        -31.5730   15.6660   -3.1760 O.2    72  SER72      -0.2863
     64  CB       -32.3640   12.9230   -1.5690 C.3    72  SER72       0.2116
     65  OG       -31.2450   12.4480   -0.8440 O.3    72  SER72      -0.2180
     66  N        -24.1750   14.3300    4.9460 N.3    89  CYS89      -0.1221
     67  CA       -23.6430   13.4170    5.9550 C.3    89  CYS89       0.1808
     68  C        -24.0340   11.9630    5.7410 C.2    89  CYS89       0.2601
     69  O        -25.2190   11.6260    5.6900 O.2    89  CYS89      -0.2717
     70  CB       -24.1150   13.8390    7.3500 C.3    89  CYS89       0.0970
     71  SG       -23.8970   15.5730    7.7050 S.3    89  CYS89      -0.0800
     72  N        -23.0360   11.0990    5.6170 N.am   90  ASP90      -0.1959
     73  CA       -23.3050    9.6820    5.4530 C.3    90  ASP90       0.1840
     74  C        -22.1280    8.8270    5.9050 C.2    90  ASP90       0.2622
     75  O        -20.9580    9.1580    5.6870 O.2    90  ASP90      -0.2715
     76  CB       -23.6860    9.3510    4.0100 C.3    90  ASP90       0.1450
     77  CG       -24.5230    8.0790    3.9100 C.2    90  ASP90       0.3671
     78  OD1      -23.9780    6.9710    4.1030 O.co2  90  ASP90      -0.2456
     79  OD2      -25.7400    8.1900    3.6540 O.co2  90  ASP90      -0.2456
     80  N        -22.4870    7.7200    6.5400 N.am   91  GLN91      -0.1963
     81  CA       -21.5750    6.7420    7.1110 C.3    91  GLN91       0.1733
     82  C        -20.9520    5.7680    6.0960 C.2    91  GLN91       0.2616
     83  O        -19.8460    5.2630    6.3080 O.2    91  GLN91      -0.2715
     84  CB       -22.3660    5.9790    8.1660 C.3    91  GLN91       0.0408
     85  CG       -21.5960    5.0500    9.0460 C.3    91  GLN91       0.0908
     86  CD       -22.4290    4.6300   10.2390 C.2    91  GLN91       0.2608
     87  OE1      -23.5280    4.0930   10.0810 O.2    91  GLN91      -0.2717
     88  NE2      -21.9160    4.8820   11.4420 N.am   91  GLN91      -0.0878
     89  N        -21.6680    5.5150    5.0020 N.am   92  ASP92      -0.1971
     90  CA       -21.2310    4.5960    3.9540 C.3    92  ASP92       0.1709
     91  C        -20.3000    5.2520    2.9230 C.2    92  ASP92       0.2293
     92  O        -20.6860    6.1920    2.2280 O.2    92  ASP92      -0.2864
     93  CB       -22.4620    4.0320    3.2410 C.3    92  ASP92       0.1436
     94  CG       -22.1120    2.9860    2.2050 C.2    92  ASP92       0.3671
     95  OD1      -20.9670    2.9830    1.7160 O.co2  92  ASP92      -0.2456
     96  OD2      -22.9910    2.1710    1.8700 O.co2  92  ASP92      -0.2456
     97  N        -18.7790    9.5310    7.6420 N.3   117  GLY117     -0.1210
     98  CA       -18.6500    9.1460    9.0370 C.3   117  GLY117      0.1940
     99  C        -19.9730    9.2690    9.7700 C.2   117  GLY117      0.2454
    100  O        -20.9130    9.8480    9.2300 O.2   117  GLY117     -0.2732
    101  N        -20.0880    8.7360   11.0010 N.am  118  PRO118     -0.2717
    102  CA       -21.3490    8.8310   11.7490 C.3   118  PRO118      0.1535
    103  C        -21.9030   10.2560   11.7680 C.2   118  PRO118      0.2598
    104  O        -21.1960   11.2050   12.1090 O.2   118  PRO118     -0.2715
    105  CB       -20.9620    8.3310   13.1340 C.3   118  PRO118      0.0310
    106  CG       -19.9370    7.2880   12.8190 C.3   118  PRO118      0.0237
    107  CD       -19.0820    7.9800   11.7690 C.3   118  PRO118      0.0939
    108  N        -23.1710   10.3890   11.3940 N.am  119  ALA119     -0.1964
    109  CA       -23.8380   11.6810   11.3390 C.3   119  ALA119      0.1728
    110  C        -23.7380   12.4930   12.6320 C.2   119  ALA119      0.2616
    111  O        -23.5270   13.7040   12.5890 O.2   119  ALA119     -0.2715
    112  CB       -25.2950   11.4850   10.9600 C.3   119  ALA119      0.0334
    113  N        -23.8900   11.8400   13.7800 N.am  120  LEU120     -0.1977
    114  CA       -23.8150   12.5510   15.0590 C.3   120  LEU120      0.1596
    115  C        -22.4670   13.2450   15.2670 C.2   120  LEU120      0.2287
    116  O        -22.4020   14.3750   15.7590 O.2   120  LEU120     -0.2864
    117  CB       -24.0890   11.5880   16.2160 C.3   120  LEU120      0.0297
    118  CG       -25.5210   11.0670   16.2640 C.3   120  LEU120      0.0022
    119  CD1      -25.6560   10.0240   17.3610 C.3   120  LEU120      0.0001
    120  CD2      -26.4740   12.2430   16.4930 C.3   120  LEU120      0.0001
    121  N        -32.5980   18.1570    5.6330 N.3   139  PHE139     -0.1241
    122  CA       -33.2930   16.9340    5.2450 C.3   139  PHE139      0.1605
    123  C        -32.7960   15.7200    6.0350 C.2   139  PHE139      0.2264
    124  O        -31.6840   15.2210    5.8070 O.2   139  PHE139     -0.2867
    125  CB       -33.1280   16.6740    3.7410 C.3   139  PHE139      0.0534
    126  CG       -33.8390   15.4320    3.2530 C.ar  139  PHE139     -0.0203
    127  CD1      -35.1430   15.1460    3.6680 C.ar  139  PHE139     -0.0042
    128  CD2      -33.2160   14.5580    2.3670 C.ar  139  PHE139     -0.0042
    129  CE1      -35.8090   14.0100    3.2080 C.ar  139  PHE139     -0.0003
    130  CE2      -33.8750   13.4210    1.9030 C.ar  139  PHE139     -0.0003
    131  CZ       -35.1720   13.1500    2.3240 C.ar  139  PHE139     -0.0000
    132  N        -32.9830   11.9160    6.7680 N.3   141  ASP141     -0.1225
    133  CA       -33.3970   10.6990    6.0910 C.3   141  ASP141      0.1805
    134  C        -32.3760    9.5600    6.2510 C.2   141  ASP141      0.2598
    135  O        -31.9610    8.9320    5.2740 O.2   141  ASP141     -0.2718
    136  CB       -33.6280   11.0340    4.6120 C.3   141  ASP141      0.1424
    137  CG       -34.2520    9.9000    3.8430 C.2   141  ASP141      0.3668
    138  OD1      -35.1130    9.2050    4.4130 O.co2 141  ASP141     -0.2456
    139  OD2      -33.8920    9.7140    2.6630 O.co2 141  ASP141     -0.2456
    140  N        -31.9870    9.2960    7.4950 N.am  142  ALA142     -0.1966
    141  CA       -31.0230    8.2450    7.7990 C.3   142  ALA142      0.1728
    142  C        -31.6290    7.2200    8.7570 C.2   142  ALA142      0.2616
    143  O        -32.8310    6.9450    8.7070 O.2   142  ALA142     -0.2715
    144  CB       -29.7590    8.8610    8.4130 C.3   142  ALA142      0.0334
    145  N        -30.7870    6.6680    9.6340 N.am  143  ASP143     -0.1957
    146  CA       -31.2130    5.6690   10.6110 C.3   143  ASP143      0.1840
    147  C        -32.2910    6.2430   11.5240 C.2   143  ASP143      0.2621
    148  O        -32.0700    7.2180   12.2340 O.2   143  ASP143     -0.2715
    149  CB       -30.0010    5.1540   11.4080 C.3   143  ASP143      0.1450
    150  CG       -29.2190    6.2630   12.0870 C.2   143  ASP143      0.3671
    151  OD1      -28.8960    7.2730   11.4270 O.co2 143  ASP143     -0.2456
    152  OD2      -28.9130    6.1190   13.2890 O.co2 143  ASP143     -0.2456
    153  N        -33.4660    5.6230   11.4850 N.am  144  LYS144     -0.1977
    154  CA       -34.6180    6.0830   12.2530 C.3   144  LYS144      0.1596
    155  C        -34.4180    6.1490   13.7610 C.2   144  LYS144      0.2287
    156  O        -35.0220    6.9810   14.4390 O.2   144  LYS144     -0.2864
    157  CB       -35.8380    5.2110   11.9250 C.3   144  LYS144      0.0298
    158  CG       -36.0260    4.9120   10.4310 C.3   144  LYS144      0.0038
    159  CD       -35.8430    6.1610    9.5560 C.3   144  LYS144      0.0206
    160  CE       -35.9020    5.8200    8.0670 C.3   144  LYS144      0.1093
    161  NZ       -35.3330    6.8960    7.1950 N.3   144  LYS144     -0.1314
    162  N        -32.0460    7.2970   15.4350 N.3   146  ASN146     -0.1240
    163  CA       -31.4960    8.5920   15.8280 C.3   146  ASN146      0.1653
    164  C        -32.2670    9.8290   15.3710 C.2   146  ASN146      0.2266
    165  O        -31.7740   10.9480   15.5100 O.2   146  ASN146     -0.2867
    166  CB       -30.0450    8.7060   15.3490 C.3   146  ASN146      0.1155
    167  CG       -29.1040    7.8200   16.1300 C.2   146  ASN146      0.2627
    168  OD1      -28.2670    7.1170   15.5560 O.2   146  ASN146     -0.2716
    169  ND2      -29.2270    7.8540   17.4470 N.am  146  ASN146     -0.0877
    170  N        -31.1800   13.8160   15.5930 N.3   150  TYR150     -0.1241
    171  CA       -30.9710   14.6160   14.3930 C.3   150  TYR150      0.1605
    172  C        -31.9050   15.8260   14.3320 C.2   150  TYR150      0.2264
    173  O        -31.5020   16.9080   13.8890 O.2   150  TYR150     -0.2867
    174  CB       -31.1610   13.7620   13.1430 C.3   150  TYR150      0.0534
    175  CG       -30.2520   12.5580   13.0560 C.ar  150  TYR150     -0.0201
    176  CD1      -28.9090   12.6390   13.4310 C.ar  150  TYR150     -0.0009
    177  CD2      -30.7240   11.3440   12.5470 C.ar  150  TYR150     -0.0009
    178  CE1      -28.0560   11.5410   13.3000 C.ar  150  TYR150      0.0417
    179  CE2      -29.8830   10.2470   12.4110 C.ar  150  TYR150      0.0417
    180  CZ       -28.5510   10.3520   12.7900 C.ar  150  TYR150      0.1957
    181  OH       -27.7320    9.2570   12.6660 O.3   150  TYR150     -0.2866
@<TRIPOS>BOND
     1    59    58    1
     2    57    58   ar
     3    57    55   ar
     4    58    56   ar
     5    55    53   ar
     6    56    54   ar
     7    53    54   ar
     8    53    52    1
     9    16    15    2
    10    51    50    2
    11    52    49    1
    12    49    50    1
    13    49    48    1
    14    17    15   am
    15    50    60   am
    16    15    14    1
    17    21    20    2
    18    60    61    1
    19    14    13    1
    20    13    10    1
    21    20    19    1
    22    63    62    2
    23    61    62    1
    24    61    64    1
    25    23    25    1
    26    23    22    1
    27    46    44   ar
    28    46    47   ar
    29    12    11    2
    30    11    10    1
    31    11    18   am
    32    19    18    1
    33    19    22    1
    34    10     9    1
    35    22    24    1
    36    44    42   ar
    37    47    45   ar
    38    64    65    1
    39     9     3   am
    40    39    40    2
    41    39    38    1
    42    42    41    1
    43    42    43   ar
    44    45    43   ar
    45     1     2    1
    46    33    32    2
    47    41    38    1
    48    35    34    1
    49     3     2    1
    50     3     4    2
    51    38    37    1
    52     2     5    1
    53    32    37   am
    54    32    31    1
    55     5     6    1
    56    34    31    1
    57    34    36    1
    58    31    30    1
    59    95    94   ar
    60    96    94   ar
    61   130   131   ar
    62   130   128   ar
    63     8     7    1
    64     6     7    1
    65    94    93    1
    66    92    91    2
    67   131   129   ar
    68   128   126   ar
    69   139   137   ar
    70    29    28    2
    71    91    90    1
    72    30    28   am
    73   129   127   ar
    74    93    90    1
    75   126   127   ar
    76   126   125    1
    77    28    27    1
    78    79    77   ar
    79   125   122    1
    80   137   138   ar
    81   137   136    1
    82    77    76    1
    83    77    78   ar
    84    90    89    1
    85    76    73    1
    86   136   133    1
    87    66    67    1
    88    27    26    1
    89    89    82   am
    90   122   121    1
    91   122   123    1
    92   135   134    2
    93    73    72    1
    94    73    74    1
    95    72    68   am
    96    75    74    2
    97    69    68    2
    98    68    67    1
    99   124   123    2
   100    74    80   am
   101    67    70    1
   102   133   134    1
   103   133   132    1
   104    82    83    2
   105    82    81    1
   106   134   140   am
   107    80    81    1
   108    81    84    1
   109   161   160    1
   110    70    71    1
   111   140   141    1
   112    97    98    1
   113   141   144    1
   114   141   142    1
   115   160   159    1
   116    84    85    1
   117   143   142    2
   118   142   145   am
   119    98    99    1
   120    85    86    1
   121   100    99    2
   122   159   158    1
   123   145   146    1
   124    99   101   am
   125    87    86    2
   126    86    88   am
   127   158   157    1
   128   146   149    1
   129   146   147    1
   130   112   109    1
   131   101   102    1
   132   101   107    1
   133   109   108    1
   134   109   110    1
   135   108   103   am
   136   149   150    1
   137   151   150   ar
   138   153   147   am
   139   153   154    1
   140   147   148    2
   141   102   103    1
   142   102   105    1
   143   103   104    2
   144   107   106    1
   145   157   154    1
   146   150   152   ar
   147   154   155    1
   148   179   177   ar
   149   179   180   ar
   150   177   175   ar
   151   111   110    2
   152   110   113   am
   153   181   180    1
   154   180   178   ar
   155   106   105    1
   156   175   174    1
   157   175   176   ar
   158   174   171    1
   159   178   176   ar
   160   155   156    2
   161   113   114    1
   162   173   172    2
   163   172   171    1
   164   171   170    1
   165   114   115    1
   166   114   117    1
   167   115   116    2
   168   166   163    1
   169   166   167    1
   170   164   165    2
   171   164   163    1
   172   162   163    1
   173   168   167    2
   174   167   169   am
   175   117   118    1
   176   118   120    1
   177   118   119    1
