@<TRIPOS>MOLECULE
tmp/3cbiD01.pdb
 126 123 0 0 0
SMALL
GASTEIGER

@<TRIPOS>ATOM
      1  N        -39.1010   53.3630    1.4230 N.3     2  LEU2       -0.1245
      2  CA       -38.3170   53.8150    2.5490 C.3     2  LEU2        0.1561
      3  C        -38.9660   53.4460    3.8670 C.2     2  LEU2        0.2260
      4  O        -38.2800   53.2880    4.8660 O.2     2  LEU2       -0.2867
      5  CB       -38.0960   55.3190    2.4510 C.3     2  LEU2        0.0270
      6  CG       -37.0250   55.8300    1.4730 C.3     2  LEU2        0.0019
      7  CD1      -36.5480   54.7420    0.4930 C.3     2  LEU2        0.0001
      8  CD2      -37.6030   57.0310    0.7370 C.3     2  LEU2        0.0001
      9  N        -37.8790   49.7980    4.2110 N.3     5  PHE5       -0.1241
     10  CA       -36.4300   49.7700    4.3860 C.3     5  PHE5        0.1605
     11  C        -35.9910   50.1730    5.7950 C.2     5  PHE5        0.2264
     12  O        -35.2330   49.4540    6.4540 O.2     5  PHE5       -0.2867
     13  CB       -35.7820   50.6730    3.3330 C.3     5  PHE5        0.0534
     14  CG       -34.2830   50.5780    3.2770 C.ar    5  PHE5       -0.0203
     15  CD1      -33.6290   49.3880    3.5950 C.ar    5  PHE5       -0.0042
     16  CD2      -33.5230   51.6770    2.8860 C.ar    5  PHE5       -0.0042
     17  CE1      -32.2400   49.2940    3.5040 C.ar    5  PHE5       -0.0003
     18  CE2      -32.1380   51.5930    2.7930 C.ar    5  PHE5       -0.0003
     19  CZ       -31.4920   50.4040    3.1100 C.ar    5  PHE5       -0.0000
     20  N        -33.8860   48.3500    8.7770 N.3     9  ILE9       -0.1245
     21  CA       -32.6820   48.8630    9.4200 C.3     9  ILE9        0.1561
     22  C        -32.8130   48.9110   10.9540 C.2     9  ILE9        0.2260
     23  O        -31.8470   48.6640   11.6800 O.2     9  ILE9       -0.2867
     24  CB       -32.3350   50.2630    8.8680 C.3     9  ILE9        0.0252
     25  CG1      -32.3090   50.2050    7.3440 C.3     9  ILE9        0.0019
     26  CG2      -30.9880   50.7150    9.3780 C.3     9  ILE9        0.0019
     27  CD1      -32.3590   51.5510    6.6520 C.3     9  ILE9        0.0001
     28  N        -33.2500   54.8120   11.2930 N.3    17  ALA17      -0.1231
     29  CA       -32.7820   55.2610    9.9530 C.3    17  ALA17       0.1694
     30  C        -32.3230   56.7290    9.7110 C.2    17  ALA17       0.2591
     31  O        -31.2030   57.0530    9.2690 O.2    17  ALA17      -0.2718
     32  CB       -33.8570   54.9680    8.9540 C.3    17  ALA17       0.0304
     33  N        -33.2860   57.5990    9.9580 N.am   18  ILE18      -0.1980
     34  CA       -33.1270   58.9550    9.8570 C.3    18  ILE18       0.1595
     35  C        -33.0100   59.1660   11.3180 C.2    18  ILE18       0.2287
     36  O        -33.9040   58.8920   12.1590 O.2    18  ILE18      -0.2864
     37  CB       -34.3610   59.6690    9.2690 C.3    18  ILE18       0.0276
     38  CG1      -34.6230   58.9900    7.8990 C.3    18  ILE18       0.0022
     39  CG2      -34.0780   61.1520    9.1380 C.3    18  ILE18       0.0022
     40  CD1      -34.2920   59.8370    6.6090 C.3    18  ILE18       0.0001
     41  N        -28.5640   56.4840    9.3820 N.3    21  TYR21      -0.1227
     42  CA       -27.9760   56.0130    8.0880 C.3    21  TYR21       0.1736
     43  C        -28.4480   56.9180    6.9410 C.2    21  TYR21       0.2596
     44  O        -28.0240   56.8190    5.7870 O.2    21  TYR21      -0.2718
     45  CB       -28.4550   54.6150    7.7580 C.3    21  TYR21       0.0548
     46  CG       -27.7920   53.5730    8.5810 C.ar   21  TYR21      -0.0200
     47  CD1      -26.6210   52.9800    8.1450 C.ar   21  TYR21      -0.0009
     48  CD2      -28.3030   53.2030    9.8100 C.ar   21  TYR21      -0.0009
     49  CE1      -25.9710   52.0440    8.9090 C.ar   21  TYR21       0.0417
     50  CE2      -27.6600   52.2600   10.5900 C.ar   21  TYR21       0.0417
     51  CZ       -26.4930   51.6860   10.1330 C.ar   21  TYR21       0.1957
     52  OH       -25.8430   50.7520   10.9060 O.3    21  TYR21      -0.2866
     53  N        -29.3880   57.7890    7.2890 N.am   22  SER22      -0.1952
     54  CA       -29.9880   58.6640    6.3060 C.3    22  SER22       0.1924
     55  C        -29.0780   59.7030    5.6840 C.2    22  SER22       0.2314
     56  O        -29.4170   60.2890    4.6520 O.2    22  SER22      -0.2863
     57  CB       -31.2050   59.3510    6.9100 C.3    22  SER22       0.2116
     58  OG       -30.9030   59.8640    8.1960 O.3    22  SER22      -0.2180
     59  N        -25.0500   56.9100    1.6770 N.3    28  CYS28      -0.1221
     60  CA       -26.3180   56.6000    2.3390 C.3    28  CYS28       0.1808
     61  C        -27.1650   57.8660    2.2640 C.2    28  CYS28       0.2602
     62  O        -26.7700   58.9040    2.8020 O.2    28  CYS28      -0.2717
     63  CB       -26.1000   56.2500    3.8050 C.3    28  CYS28       0.0970
     64  SG       -24.7670   55.0720    4.0820 S.3    28  CYS28      -0.0800
     65  N        -28.3200   57.7930    1.6100 N.am   29  GLY29      -0.1942
     66  CA       -29.1540   58.9770    1.4940 C.3    29  GLY29       0.2014
     67  C        -29.1470   59.5150    0.0790 C.2    29  GLY29       0.2638
     68  O        -29.7520   58.9210   -0.8050 O.2    29  GLY29      -0.2714
     69  N        -28.4580   60.6210   -0.1560 N.am   30  TRP30      -0.1973
     70  CA       -28.3900   61.2260   -1.5020 C.3    30  TRP30       0.1640
     71  C        -27.6750   60.2920   -2.4280 C.2    30  TRP30       0.2290
     72  O        -28.3230   59.4850   -3.1020 O.2    30  TRP30      -0.2864
     73  CB       -27.6770   62.5420   -1.3520 C.3    30  TRP30       0.0576
     74  CG       -28.0710   63.0050   -0.0180 C.ar   30  TRP30       0.0006
     75  CD1      -27.2650   63.2080    1.0830 C.ar   30  TRP30       0.0946
     76  CD2      -29.4310   63.2060    0.4300 C.ar   30  TRP30       0.0152
     77  NE1      -28.0440   63.5320    2.1900 N.ar   30  TRP30      -0.2442
     78  CE2      -29.3670   63.5460    1.8200 C.ar   30  TRP30       0.0810
     79  CE3      -30.6930   63.1310   -0.2070 C.ar   30  TRP30       0.0012
     80  CZ2      -30.5140   63.8250    2.5760 C.ar   30  TRP30       0.0191
     81  CZ3      -31.8330   63.4080    0.5550 C.ar   30  TRP30       0.0001
     82  CH2      -31.7290   63.7570    1.9340 C.ar   30  TRP30       0.0015
     83  N        -24.1800   51.1200    1.3700 N.3    44  CYS44      -0.1235
     84  CA       -25.0060   52.1460    0.7490 C.3    44  CYS44       0.1677
     85  C        -24.6570   52.2960   -0.7350 C.2    44  CYS44       0.2270
     86  O        -25.5500   52.4430   -1.5830 O.2    44  CYS44      -0.2867
     87  CB       -24.8370   53.4680    1.5060 C.3    44  CYS44       0.0956
     88  SG       -25.4530   53.3710    3.2220 S.3    44  CYS44      -0.0801
     89  N        -26.1970   49.2460   -2.3490 N.3    47  HIS47      -0.1226
     90  CA       -27.6540   49.3650   -2.3490 C.3    47  HIS47       0.1752
     91  C        -28.0830   50.2980   -3.4540 C.2    47  HIS47       0.2596
     92  O        -29.0820   50.0560   -4.1430 O.2    47  HIS47      -0.2718
     93  CB       -28.1600   49.9260   -1.0180 C.3    47  HIS47       0.0759
     94  CG       -29.6530   50.0550   -0.9400 C.ar   47  HIS47       0.0818
     95  ND1      -30.3200   51.2170   -1.2690 N.ar   47  HIS47      -0.2268
     96  CD2      -30.6090   49.1700   -0.5670 C.ar   47  HIS47       0.1154
     97  CE1      -31.6130   51.0410   -1.0950 C.ar   47  HIS47       0.1986
     98  NE2      -31.8190   49.8060   -0.6720 N.ar   47  HIS47      -0.2212
     99  N        -27.3300   51.3840   -3.5950 N.am   48  ASP48      -0.1974
    100  CA       -27.6040   52.3790   -4.6190 C.3    48  ASP48       0.1709
    101  C        -27.5090   51.6950   -5.9730 C.2    48  ASP48       0.2293
    102  O        -28.3880   51.8470   -6.8250 O.2    48  ASP48      -0.2864
    103  CB       -26.6060   53.5330   -4.4980 C.3    48  ASP48       0.1436
    104  CG       -27.0340   54.5690   -3.4650 C.2    48  ASP48       0.3671
    105  OD1      -28.1650   54.4670   -2.9450 O.co2  48  ASP48      -0.2456
    106  OD2      -26.2490   55.4980   -3.1790 O.co2  48  ASP48      -0.2456
    107  N        -37.9380   53.9910   -3.9850 N.3    60  LYS60      -0.1245
    108  CA       -38.2140   54.9220   -2.8990 C.3    60  LYS60       0.1561
    109  C        -39.6780   54.9860   -2.4620 C.2    60  LYS60       0.2260
    110  O        -39.9670   55.5500   -1.4210 O.2    60  LYS60      -0.2867
    111  CB       -37.7150   56.3450   -3.2540 C.3    60  LYS60       0.0271
    112  CG       -36.2630   56.6310   -2.8040 C.3    60  LYS60       0.0035
    113  CD       -35.8680   58.1280   -2.7980 C.3    60  LYS60       0.0206
    114  CE       -34.4350   58.3300   -2.2200 C.3    60  LYS60       0.1093
    115  NZ       -33.9960   59.7610   -2.0050 N.3    60  LYS60      -0.1314
    116  N        -25.4960   46.3000    7.1120 N.3    96  PHE96      -0.1241
    117  CA       -25.2680   47.2560    8.1810 C.3    96  PHE96       0.1605
    118  C        -24.9760   46.4670    9.4440 C.2    96  PHE96       0.2264
    119  O        -23.9720   46.7150   10.1060 O.2    96  PHE96      -0.2867
    120  CB       -26.4810   48.1380    8.4290 C.3    96  PHE96       0.0534
    121  CG       -26.7830   49.0700    7.3190 C.ar   96  PHE96      -0.0203
    122  CD1      -25.7630   49.6050    6.5570 C.ar   96  PHE96      -0.0042
    123  CD2      -28.0940   49.4130    7.0300 C.ar   96  PHE96      -0.0042
    124  CE1      -26.0400   50.4860    5.5280 C.ar   96  PHE96      -0.0003
    125  CE2      -28.3800   50.2910    6.0050 C.ar   96  PHE96      -0.0003
    126  CZ       -27.3500   50.8240    5.2420 C.ar   96  PHE96      -0.0000
@<TRIPOS>BOND
     1   102   101    2
     2   101   100    1
     3   100   103    1
     4   100    99    1
     5   103   104    1
     6    92    91    2
     7   107   108    1
     8    99    91   am
     9   104   106   ar
    10   104   105   ar
    11    91    90    1
    12   111   108    1
    13   111   112    1
    14    72    71    2
    15   108   109    1
    16   112   113    1
    17   113   114    1
    18   109   110    2
    19    71    70    1
    20    90    89    1
    21    90    93    1
    22   114   115    1
    23    86    85    2
    24    70    73    1
    25    70    69    1
    26    73    74    1
    27    95    97   ar
    28    95    94   ar
    29    97    98   ar
    30    93    94    1
    31    94    96   ar
    32    68    67    2
    33    85    84    1
    34    98    96   ar
    35    79    76   ar
    36    79    81   ar
    37    69    67   am
    38    74    76   ar
    39    74    75   ar
    40    67    66    1
    41    76    78   ar
    42     7     6    1
    43    81    82   ar
    44     8     6    1
    45    84    83    1
    46    84    87    1
    47    75    77   ar
    48     1     2    1
    49     6     5    1
    50    66    65    1
    51    87    88    1
    52    65    61   am
    53    59    60    1
    54    78    77   ar
    55    78    80   ar
    56    82    80   ar
    57    61    60    1
    58    61    62    2
    59    60    63    1
    60     5     2    1
    61     2     3    1
    62    18    16   ar
    63    18    19   ar
    64    16    14   ar
    65    19    17   ar
    66    88    64    1
    67    14    13    1
    68    14    15   ar
    69    13    10    1
    70    17    15   ar
    71    63    64    1
    72     3     4    2
    73     9    10    1
    74    10    11    1
    75    56    55    2
    76   126   124   ar
    77   126   125   ar
    78   124   122   ar
    79    55    54    1
    80    44    43    2
    81    11    12    2
    82   125   123   ar
    83    54    57    1
    84    54    53    1
    85   122   121   ar
    86    40    38    1
    87    27    25    1
    88    57    58    1
    89    43    53   am
    90    43    42    1
    91   123   121   ar
    92   116   117    1
    93   121   120    1
    94    25    24    1
    95    45    42    1
    96    45    46    1
    97    38    37    1
    98    42    41    1
    99    47    46   ar
   100    47    49   ar
   101   117   120    1
   102   117   118    1
   103    46    48   ar
   104    20    21    1
   105    24    26    1
   106    24    21    1
   107    49    51   ar
   108    32    29    1
   109    39    37    1
   110    31    30    2
   111    37    34    1
   112    21    22    1
   113   118   119    2
   114    30    29    1
   115    30    33   am
   116    48    50   ar
   117    34    33    1
   118    34    35    1
   119    29    28    1
   120    51    50   ar
   121    51    52    1
   122    22    23    2
   123    35    36    2
