@<TRIPOS>MOLECULE
tmp/3cblA00.pdb
 152 147 0 0 0
SMALL
GASTEIGER

@<TRIPOS>ATOM
      1  N         19.4080   30.3670   29.4120 N.3   180  LEU180     -0.1245
      2  CA        20.2330   30.5500   30.6430 C.3   180  LEU180      0.1561
      3  C         21.4640   31.3840   30.2940 C.2   180  LEU180      0.2260
      4  O         21.8240   32.3640   30.9730 O.2   180  LEU180     -0.2867
      5  CB        20.6870   29.2280   31.2530 C.3   180  LEU180      0.0270
      6  CG        21.4230   29.3250   32.5860 C.3   180  LEU180      0.0019
      7  CD1       20.5330   30.0300   33.6510 C.3   180  LEU180      0.0001
      8  CD2       21.7960   27.9260   33.0630 C.3   180  LEU180      0.0001
      9  N         11.5580   18.2810   31.2430 N.3   218  ASP218     -0.1239
     10  CA        12.9030   18.8770   31.4530 C.3   218  ASP218      0.1674
     11  C         12.8350   20.3740   31.1020 C.2   218  ASP218      0.2266
     12  O         13.6720   20.9010   30.3560 O.2   218  ASP218     -0.2867
     13  CB        13.9660   18.1930   30.5820 C.3   218  ASP218      0.1410
     14  CG        15.3970   18.4340   31.0640 C.2   218  ASP218      0.3668
     15  OD1       15.5950   18.9990   32.1750 O.co2 218  ASP218     -0.2456
     16  OD2       16.3410   18.0290   30.3060 O.co2 218  ASP218     -0.2456
     17  N         17.9390   26.4190   30.5060 N.3   222  ARG222     -0.1231
     18  CA        18.9400   25.8080   29.5990 C.3   222  ARG222      0.1694
     19  C         18.3420   25.1470   28.3550 C.2   222  ARG222      0.2592
     20  O         19.0550   24.9970   27.3390 O.2   222  ARG222     -0.2718
     21  CB        19.8310   24.7840   30.3180 C.3   222  ARG222      0.0321
     22  CG        19.0930   23.6060   30.8870 C.3   222  ARG222      0.0489
     23  CD        19.9690   22.5670   31.6240 C.3   222  ARG222      0.2205
     24  NE        19.0170   21.5940   32.1740 N.pl3 222  ARG222     -0.0865
     25  CZ        18.3790   21.7300   33.3310 C.cat 222  ARG222      0.5346
     26  NH1       18.6470   22.7580   34.1430 N.pl3 222  ARG222      0.1354
     27  NH2       17.4650   20.8320   33.6980 N.pl3 222  ARG222      0.1354
     28  N         17.0750   24.7220   28.4590 N.am  223  ASN223     -0.1974
     29  CA        16.3120   24.0400   27.3700 C.3   223  ASN223      0.1688
     30  C         15.3530   24.9370   26.5710 C.2   223  ASN223      0.2292
     31  O         14.6210   24.4680   25.6500 O.2   223  ASN223     -0.2864
     32  CB        15.6010   22.8280   27.9410 C.3   223  ASN223      0.1181
     33  CG        16.5490   21.6950   28.2120 C.2   223  ASN223      0.2629
     34  OD1       17.6790   21.6380   27.6470 O.2   223  ASN223     -0.2716
     35  ND2       16.1060   20.7590   29.0900 N.am  223  ASN223     -0.0877
     36  N         14.5640   20.8390   23.4390 N.3   236  ASP236     -0.1239
     37  CA        14.9110   19.5540   23.9990 C.3   236  ASP236      0.1674
     38  C         13.7180   18.7080   24.5440 C.2   236  ASP236      0.2266
     39  O         13.5490   18.5430   25.7630 O.2   236  ASP236     -0.2867
     40  CB        16.0090   19.6120   25.0430 C.3   236  ASP236      0.1410
     41  CG        16.5730   18.2240   25.3260 C.2   236  ASP236      0.3668
     42  OD1       16.0250   17.2050   24.7910 O.co2 236  ASP236     -0.2456
     43  OD2       17.5460   18.1490   26.0920 O.co2 236  ASP236     -0.2456
     44  N         13.0280   14.0380   26.5890 N.3   239  MET239     -0.1245
     45  CA        12.3650   13.3750   27.7140 C.3   239  MET239      0.1570
     46  C         10.8460   13.4020   27.6520 C.2   239  MET239      0.2261
     47  O         10.1880   12.8670   28.5530 O.2   239  MET239     -0.2867
     48  CB        12.7870   14.0070   29.0550 C.3   239  MET239      0.0387
     49  CG        14.2420   13.9010   29.4160 C.3   239  MET239      0.0595
     50  SD        14.3740   14.3240   31.1700 S.3   239  MET239     -0.1393
     51  CE        16.1530   14.3070   31.4050 C.3   239  MET239      0.0692
     52  N         13.6820    1.3230   34.6820 N.3   253  GLY253     -0.1210
     53  CA        15.0770    1.4120   35.0870 C.3   253  GLY253      0.1956
     54  C         15.5330    2.7780   35.5190 C.2   253  GLY253      0.2612
     55  O         14.7300    3.6380   35.8440 O.2   253  GLY253     -0.2717
     56  N         16.8430    2.9930   35.5370 N.am  254  LEU254     -0.1965
     57  CA        17.4130    4.2950   35.9000 C.3   254  LEU254      0.1728
     58  C         16.8860    5.4430   35.0400 C.2   254  LEU254      0.2616
     59  O         16.6350    5.2750   33.8140 O.2   254  LEU254     -0.2715
     60  CB        18.9600    4.2660   35.8190 C.3   254  LEU254      0.0311
     61  CG        19.7070    3.4420   36.8530 C.3   254  LEU254      0.0022
     62  CD1       21.2060    3.3910   36.5050 C.3   254  LEU254      0.0001
     63  CD2       19.4870    3.9950   38.2510 C.3   254  LEU254      0.0001
     64  N         16.7360    6.6160   35.6670 N.am  255  ARG255     -0.1963
     65  CA        16.2970    7.8610   34.9980 C.3   255  ARG255      0.1729
     66  C         17.2730    9.0000   35.2650 C.2   255  ARG255      0.2616
     67  O         17.8190    9.0750   36.3480 O.2   255  ARG255     -0.2715
     68  CB        14.9790    8.3790   35.5830 C.3   255  ARG255      0.0348
     69  CG        13.7630    7.5250   35.5010 C.3   255  ARG255      0.0492
     70  CD        12.6840    8.1730   36.3430 C.3   255  ARG255      0.2205
     71  NE        12.9900    8.0630   37.7740 N.pl3 255  ARG255     -0.0865
     72  CZ        12.3940    8.7470   38.7440 C.cat 255  ARG255      0.5346
     73  NH1       11.4420    9.6340   38.4850 N.pl3 255  ARG255      0.1354
     74  NH2       12.7700    8.5420   39.9940 N.pl3 255  ARG255      0.1354
     75  N         17.4190    9.9140   34.3010 N.am  256  GLN256     -0.1963
     76  CA        18.1870   11.1350   34.5000 C.3   256  GLN256      0.1733
     77  C         17.2340   12.1870   35.0380 C.2   256  GLN256      0.2616
     78  O         16.2890   12.5480   34.3570 O.2   256  GLN256     -0.2715
     79  CB        18.8050   11.6130   33.1740 C.3   256  GLN256      0.0408
     80  CG        20.2150   11.1090   32.9660 C.3   256  GLN256      0.0908
     81  CD        20.9850   11.8720   31.8900 C.2   256  GLN256      0.2608
     82  OE1       20.4010   12.4070   30.9460 O.2   256  GLN256     -0.2717
     83  NE2       22.3080   11.9010   32.0240 N.am  256  GLN256     -0.0878
     84  N         17.4530   12.6620   36.2580 N.am  257  VAL257     -0.1964
     85  CA        16.4920   13.6040   36.8480 C.3   257  VAL257      0.1712
     86  C         17.1760   14.9180   37.1220 C.2   257  VAL257      0.2458
     87  O         18.1760   14.9520   37.8660 O.2   257  VAL257     -0.2730
     88  CB        15.9040   13.0460   38.1740 C.3   257  VAL257      0.0289
     89  CG1       14.8550   14.0430   38.7880 C.3   257  VAL257      0.0023
     90  CG2       15.3100   11.6130   38.0080 C.3   257  VAL257      0.0023
     91  N         16.6490   16.0160   36.5380 N.am  258  PRO258     -0.2716
     92  CA        17.1790   17.3440   36.8810 C.3   258  PRO258      0.1536
     93  C         16.5530   17.7760   38.2250 C.2   258  PRO258      0.2598
     94  O         15.4770   18.4110   38.2540 O.2   258  PRO258     -0.2715
     95  CB        16.7080   18.2050   35.7430 C.3   258  PRO258      0.0310
     96  CG        15.4580   17.5550   35.2170 C.3   258  PRO258      0.0237
     97  CD        15.5880   16.0740   35.5160 C.3   258  PRO258      0.0939
     98  N         17.2070   17.3920   39.3200 N.am  259  VAL259     -0.1964
     99  CA        16.5190   17.3270   40.6130 C.3   259  VAL259      0.1727
    100  C         15.9490   18.6770   41.0220 C.2   259  VAL259      0.2616
    101  O         14.7900   18.7680   41.3800 O.2   259  VAL259     -0.2715
    102  CB        17.4420   16.7880   41.7030 C.3   259  VAL259      0.0290
    103  CG1       16.8830   17.0330   43.1310 C.3   259  VAL259      0.0023
    104  CG2       17.7080   15.2780   41.4520 C.3   259  VAL259      0.0023
    105  N         16.7530   19.7330   40.9020 N.am  260  LYS260     -0.1963
    106  CA        16.3280   21.0780   41.3430 C.3   260  LYS260      0.1728
    107  C         15.1700   21.6980   40.5270 C.2   260  LYS260      0.2616
    108  O         14.6080   22.7030   40.9470 O.2   260  LYS260     -0.2715
    109  CB        17.5560   22.0160   41.4530 C.3   260  LYS260      0.0311
    110  CG        18.5300   21.6120   42.5800 C.3   260  LYS260      0.0038
    111  CD        19.8650   22.3820   42.5790 C.3   260  LYS260      0.0206
    112  CE        20.7260   22.0000   43.7560 C.3   260  LYS260      0.1093
    113  NZ        21.9170   22.8660   43.8150 N.3   260  LYS260     -0.1314
    114  N         14.8170   21.1240   39.3780 N.am  261  TRP261     -0.1974
    115  CA        13.7050   21.5870   38.5300 C.3   261  TRP261      0.1640
    116  C         12.5050   20.6600   38.6400 C.2   261  TRP261      0.2290
    117  O         11.4320   20.9410   38.0960 O.2   261  TRP261     -0.2864
    118  CB        14.1340   21.6930   37.0470 C.3   261  TRP261      0.0576
    119  CG        14.9350   22.8830   36.7550 C.ar  261  TRP261      0.0006
    120  CD1       14.5020   24.0710   36.1800 C.ar  261  TRP261      0.0946
    121  CD2       16.3310   23.0470   37.0080 C.ar  261  TRP261      0.0152
    122  NE1       15.5510   24.9470   36.0720 N.ar  261  TRP261     -0.2442
    123  CE2       16.6790   24.3640   36.5920 C.ar  261  TRP261      0.0810
    124  CE3       17.3240   22.2280   37.5690 C.ar  261  TRP261      0.0012
    125  CZ2       17.9710   24.8450   36.6790 C.ar  261  TRP261      0.0191
    126  CZ3       18.5930   22.7170   37.6600 C.ar  261  TRP261      0.0001
    127  CH2       18.9160   24.0180   37.2120 C.ar  261  TRP261      0.0015
    128  N          9.9270   13.4930   41.4190 N.3   267  LEU267     -0.1245
    129  CA        11.2630   13.1000   41.8650 C.3   267  LEU267      0.1561
    130  C         11.2260   11.8070   42.6680 C.2   267  LEU267      0.2260
    131  O         12.0670   10.9330   42.4420 O.2   267  LEU267     -0.2867
    132  CB        11.9390   14.2340   42.6500 C.3   267  LEU267      0.0270
    133  CG        13.2650   13.9070   43.3550 C.3   267  LEU267      0.0019
    134  CD1       14.3930   13.5590   42.3730 C.3   267  LEU267      0.0001
    135  CD2       13.6750   15.0640   44.2590 C.3   267  LEU267      0.0001
    136  N         21.7850   18.0830   45.4310 N.3   301  ASN301     -0.1225
    137  CA        20.4830   17.5930   45.0010 C.3   301  ASN301      0.1785
    138  C         19.6970   16.8770   46.1050 C.2   301  ASN301      0.2597
    139  O         18.5110   17.1440   46.2670 O.2   301  ASN301     -0.2718
    140  CB        20.6290   16.7230   43.7560 C.3   301  ASN301      0.1169
    141  CG        20.9970   17.5190   42.5290 C.2   301  ASN301      0.2627
    142  OD1       20.6430   18.7100   42.3830 O.2   301  ASN301     -0.2716
    143  ND2       21.6900   16.8590   41.6060 N.am  301  ASN301     -0.0877
    144  N         20.3630   16.0210   46.9030 N.am  302  GLN302     -0.1979
    145  CA        19.7020   15.2940   48.0040 C.3   302  GLN302      0.1601
    146  C         19.1850   16.2670   49.0590 C.2   302  GLN302      0.2287
    147  O         18.0860   16.1050   49.6070 O.2   302  GLN302     -0.2864
    148  CB        20.6640   14.3000   48.7060 C.3   302  GLN302      0.0394
    149  CG        21.4220   13.3370   47.8190 C.3   302  GLN302      0.0908
    150  CD        22.6010   12.6900   48.5490 C.2   302  GLN302      0.2608
    151  OE1       22.4610   12.2190   49.6780 O.2   302  GLN302     -0.2717
    152  NE2       23.7700   12.6780   47.9060 N.am  302  GLN302     -0.0878
@<TRIPOS>BOND
     1    36    37    1
     2    37    38    1
     3    37    40    1
     4    38    39    2
     5    42    41   ar
     6    40    41    1
     7    41    43   ar
     8    31    30    2
     9    30    29    1
    10    44    45    1
    11    20    19    2
    12    29    32    1
    13    29    28    1
    14    34    33    2
    15    46    45    1
    16    46    47    2
    17    45    48    1
    18    32    33    1
    19    33    35   am
    20    19    28   am
    21    19    18    1
    22    48    49    1
    23     1     2    1
    24    49    50    1
    25    18    21    1
    26    18    17    1
    27     3     2    1
    28     3     4    2
    29    16    14   ar
    30    21    22    1
    31    12    11    2
    32    13    14    1
    33    13    10    1
    34     2     5    1
    35    22    23    1
    36    82    81    2
    37    14    15   ar
    38    11    10    1
    39    50    51    1
    40     9    10    1
    41     5     6    1
    42    23    24    1
    43    81    83   am
    44    81    80    1
    45    24    25    2
    46     6     8    1
    47     6     7    1
    48    80    79    1
    49    79    76    1
    50    25    27    1
    51    25    26    1
    52    59    58    2
    53    75    76    1
    54    75    66   am
    55    78    77    2
    56    76    77    1
    57    52    53    1
    58    65    66    1
    59    65    68    1
    60    65    64    1
    61    77    84   am
    62    58    64   am
    63    58    57    1
    64    53    54    1
    65    96    97    1
    66    96    95    1
    67    66    67    2
    68    69    68    1
    69    69    70    1
    70    97    91    1
    71    54    56   am
    72    54    55    2
    73    56    57    1
    74    95    92    1
    75    60    57    1
    76    60    61    1
    77   122   120   ar
    78   122   123   ar
    79   120   119   ar
    80    84    85    1
    81    70    71    1
    82    62    61    1
    83    91    92    1
    84    91    86   am
    85   123   125   ar
    86   123   121   ar
    87   125   127   ar
    88   119   121   ar
    89   119   118    1
    90    85    86    1
    91    85    88    1
    92    61    63    1
    93    92    93    1
    94   121   124   ar
    95   118   115    1
    96    86    87    2
    97   127   126   ar
    98   124   126   ar
    99    71    72    2
   100    90    88    1
   101   117   116    2
   102    88    89    1
   103    93    94    2
   104    93    98   am
   105    73    72    1
   106   115   116    1
   107   115   114    1
   108    72    74    1
   109    98    99    1
   110   114   107   am
   111   107   108    2
   112   107   106    1
   113    99   100    1
   114    99   102    1
   115   105   100   am
   116   105   106    1
   117   100   101    2
   118   106   109    1
   119   128   129    1
   120   104   102    1
   121   109   110    1
   122   143   141   am
   123   102   103    1
   124   129   132    1
   125   129   130    1
   126   134   133    1
   127   142   141    2
   128   131   130    2
   129   141   140    1
   130   111   110    1
   131   111   112    1
   132   132   133    1
   133   133   135    1
   134   112   113    1
   135   140   137    1
   136   137   136    1
   137   137   138    1
   138   138   139    2
   139   138   144   am
   140   144   145    1
   141   149   150    1
   142   149   148    1
   143   152   150   am
   144   145   148    1
   145   145   146    1
   146   150   151    2
   147   146   147    2
