@<TRIPOS>MOLECULE
tmp/3cbpA01.pdb
 147 145 0 0 0
SMALL
GASTEIGER

@<TRIPOS>ATOM
      1  N         11.6560   -0.2530    2.2570 N.3   107  ILE107     -0.1231
      2  CA        10.7190   -1.1870    2.8700 C.3   107  ILE107      0.1692
      3  C          9.4050   -0.4520    3.0910 C.2   107  ILE107      0.2593
      4  O          9.3700    0.5880    3.7460 O.2   107  ILE107     -0.2718
      5  CB        11.2410   -1.6940    4.2340 C.3   107  ILE107      0.0266
      6  CG1       12.5900   -2.3880    4.0460 C.3   107  ILE107      0.0019
      7  CG2       10.2360   -2.6500    4.8590 C.3   107  ILE107      0.0020
      8  CD1       13.2930   -2.7250    5.3520 C.3   107  ILE107      0.0001
      9  N          8.3260   -0.9960    2.5420 N.am  108  SER108     -0.1938
     10  CA         7.0140   -0.3740    2.6660 C.3   108  SER108      0.2055
     11  C          6.5680   -0.1560    4.1090 C.2   108  SER108      0.2644
     12  O          6.6130   -1.0690    4.9330 O.2   108  SER108     -0.2714
     13  CB         5.9710   -1.2160    1.9260 C.3   108  SER108      0.2130
     14  OG         4.7090   -0.5740    1.9270 O.3   108  SER108     -0.2179
     15  N          6.1440    1.0710    4.4010 N.am  109  SER109     -0.1935
     16  CA         5.6620    1.4530    5.7250 C.3   109  SER109      0.2055
     17  C          6.6870    1.2900    6.8430 C.2   109  SER109      0.2643
     18  O          6.3180    1.0990    8.0040 O.2   109  SER109     -0.2714
     19  CB         4.4020    0.6550    6.0750 C.3   109  SER109      0.2130
     20  OG         3.3660    0.8990    5.1370 O.3   109  SER109     -0.2179
     21  N          7.9670    1.3720    6.5010 N.am  110  ALA110     -0.1963
     22  CA         9.0190    1.2300    7.4990 C.3   110  ALA110      0.1728
     23  C          9.5850    2.5840    7.9280 C.2   110  ALA110      0.2617
     24  O         10.5120    2.6450    8.7320 O.2   110  ALA110     -0.2715
     25  CB        10.1370    0.3390    6.9550 C.3   110  ALA110      0.0334
     26  N          9.0280    3.6660    7.3930 N.am  111  GLY111     -0.1940
     27  CA         9.5030    4.9940    7.7460 C.3   111  GLY111      0.2014
     28  C         10.8330    5.3350    7.1020 C.2   111  GLY111      0.2638
     29  O         11.0350    5.0970    5.9090 O.2   111  GLY111     -0.2714
     30  N         11.7450    5.9150    7.8780 N.am  112  GLU112     -0.1977
     31  CA        13.0590    6.2530    7.3430 C.3   112  GLU112      0.1602
     32  C         13.9890    5.0590    7.4620 C.2   112  GLU112      0.2287
     33  O         13.7670    4.1700    8.2850 O.2   112  GLU112     -0.2864
     34  CB        13.6730    7.4460    8.0860 C.3   112  GLU112      0.0415
     35  CG        12.9240    8.7530    7.8930 C.3   112  GLU112      0.1163
     36  CD        13.6620    9.9370    8.4850 C.2   112  GLU112      0.3649
     37  OE1       14.1430    9.8240    9.6290 O.co2 112  GLU112     -0.2457
     38  OE2       13.7570   10.9860    7.8130 O.co2 112  GLU112     -0.2457
     39  N         25.8830    3.2080   16.8520 N.3   129  TYR129     -0.1241
     40  CA        24.6220    3.1460   17.5710 C.3   129  TYR129      0.1605
     41  C         24.8160    3.6460   18.9960 C.2   129  TYR129      0.2264
     42  O         25.0380    2.8630   19.9190 O.2   129  TYR129     -0.2867
     43  CB        24.0910    1.7060   17.5930 C.3   129  TYR129      0.0534
     44  CG        22.5840    1.5940   17.7100 C.ar  129  TYR129     -0.0201
     45  CD1       21.8440    0.9500   16.7230 C.ar  129  TYR129     -0.0009
     46  CD2       21.8970    2.1140   18.8120 C.ar  129  TYR129     -0.0009
     47  CE1       20.4560    0.8220   16.8210 C.ar  129  TYR129      0.0417
     48  CE2       20.5100    1.9920   18.9180 C.ar  129  TYR129      0.0417
     49  CZ        19.7970    1.3440   17.9180 C.ar  129  TYR129      0.1957
     50  OH        18.4270    1.2230   18.0160 O.3   129  TYR129     -0.2866
     51  N         11.1470    0.9640   20.1960 N.3   148  GLY148     -0.1210
     52  CA        11.4230    0.8850   18.7750 C.3   148  GLY148      0.1956
     53  C         12.9070    1.0310   18.4860 C.2   148  GLY148      0.2611
     54  O         13.4150    0.4790   17.5060 O.2   148  GLY148     -0.2717
     55  N         13.6120    1.7640   19.3450 N.am  149  ASN149     -0.1974
     56  CA        15.0470    1.9820   19.1520 C.3   149  ASN149      0.1688
     57  C         15.9590    1.3670   20.2180 C.2   149  ASN149      0.2292
     58  O         17.1310    1.7320   20.3130 O.2   149  ASN149     -0.2864
     59  CB        15.3560    3.4850   19.0620 C.3   149  ASN149      0.1181
     60  CG        14.8620    4.1190   17.7710 C.2   149  ASN149      0.2629
     61  OD1       14.6990    3.4480   16.7560 O.2   149  ASN149     -0.2716
     62  ND2       14.6470    5.4280   17.8030 N.am  149  ASN149     -0.0877
     63  N         14.7200   10.4670   18.1970 N.3   166  ASN166     -0.1240
     64  CA        14.5240    9.5330   17.0870 C.3   166  ASN166      0.1653
     65  C         14.3240   10.2900   15.7730 C.2   166  ASN166      0.2266
     66  O         14.1540    9.6900   14.7100 O.2   166  ASN166     -0.2867
     67  CB        13.3300    8.6070   17.3510 C.3   166  ASN166      0.1155
     68  CG        12.0300    9.3610   17.5660 C.2   166  ASN166      0.2627
     69  OD1       10.9660    8.9060   17.1430 O.2   166  ASN166     -0.2716
     70  ND2       12.1030   10.5020   18.2400 N.am  166  ASN166     -0.0877
     71  N         20.4800    3.8050   14.8190 N.3   177  HIS177     -0.1226
     72  CA        19.0870    3.4960   15.1210 C.3   177  HIS177      0.1752
     73  C         18.1710    3.6450   13.9090 C.2   177  HIS177      0.2596
     74  O         17.0080    3.2380   13.9570 O.2   177  HIS177     -0.2718
     75  CB        18.5900    4.4070   16.2440 C.3   177  HIS177      0.0759
     76  CG        18.7680    5.8620   15.9490 C.ar  177  HIS177      0.0818
     77  ND1       20.0070    6.4650   15.9210 N.ar  177  HIS177     -0.2268
     78  CD2       17.8750    6.8190   15.6000 C.ar  177  HIS177      0.1154
     79  CE1       19.8710    7.7300   15.5620 C.ar  177  HIS177      0.1986
     80  NE2       18.5860    7.9690   15.3600 N.ar  177  HIS177     -0.2212
     81  N         18.6830    4.2240   12.8260 N.am  178  LYS178     -0.1966
     82  CA        17.8740    4.4040   11.6200 C.3   178  LYS178      0.1728
     83  C         17.9020    3.1990   10.6750 C.2   178  LYS178      0.2616
     84  O         17.1670    3.1680    9.6890 O.2   178  LYS178     -0.2715
     85  CB        18.3050    5.6670   10.8650 C.3   178  LYS178      0.0311
     86  CG        17.8590    6.9720   11.5280 C.3   178  LYS178      0.0038
     87  CD        16.3580    7.1730   11.4030 C.3   178  LYS178      0.0206
     88  CE        15.8890    8.3760   12.2150 C.3   178  LYS178      0.1093
     89  NZ        14.4180    8.5810   12.0760 N.3   178  LYS178     -0.1314
     90  N         18.7460    2.2090   10.9620 N.am  179  ALA179     -0.1963
     91  CA        18.7980    1.0210   10.1090 C.3   179  ALA179      0.1728
     92  C         17.5890    0.1440   10.4070 C.2   179  ALA179      0.2616
     93  O         17.3140   -0.1900   11.5660 O.2   179  ALA179     -0.2715
     94  CB        20.0800    0.2370   10.3550 C.3   179  ALA179      0.0334
     95  N         16.8640   -0.2310    9.3580 N.am  180  ASN180     -0.1958
     96  CA        15.6890   -1.0640    9.5250 C.3   180  ASN180      0.1819
     97  C         16.0240   -2.5420    9.6080 C.2   180  ASN180      0.2621
     98  O         17.1570   -2.9550    9.3680 O.2   180  ASN180     -0.2715
     99  CB        14.7000   -0.8120    8.3850 C.3   180  ASN180      0.1195
    100  CG        14.0050    0.5210    8.5240 C.2   180  ASN180      0.2630
    101  OD1       13.4570    0.8300    9.5820 O.2   180  ASN180     -0.2716
    102  ND2       14.0250    1.3230    7.4620 N.am  180  ASN180     -0.0877
    103  N         15.0170   -3.3290    9.9540 N.am  181  HIS181     -0.1973
    104  CA        15.1620   -4.7670   10.0900 C.3   181  HIS181      0.1656
    105  C         14.9530   -5.5430    8.7900 C.2   181  HIS181      0.2291
    106  O         14.2010   -5.1300    7.9130 O.2   181  HIS181     -0.2864
    107  CB        14.1590   -5.2910   11.1140 C.3   181  HIS181      0.0771
    108  CG        14.0010   -6.7790   11.0830 C.ar  181  HIS181      0.0820
    109  ND1       14.8780   -7.6350   11.7150 N.ar  181  HIS181     -0.2267
    110  CD2       13.1240   -7.5630   10.4130 C.ar  181  HIS181      0.1154
    111  CE1       14.5490   -8.8830   11.4310 C.ar  181  HIS181      0.1986
    112  NE2       13.4910   -8.8690   10.6430 N.ar  181  HIS181     -0.2212
    113  N         17.0170   -7.6140   13.6990 N.3   219  TYR219     -0.1241
    114  CA        16.7730   -7.1390   15.0610 C.3   219  TYR219      0.1605
    115  C         16.9020   -8.2480   16.1050 C.2   219  TYR219      0.2264
    116  O         17.0970   -7.9770   17.2940 O.2   219  TYR219     -0.2867
    117  CB        15.4010   -6.4590   15.1410 C.3   219  TYR219      0.0534
    118  CG        15.3640   -5.0580   14.5340 C.ar  219  TYR219     -0.0201
    119  CD1       16.4490   -4.5480   13.8100 C.ar  219  TYR219     -0.0009
    120  CD2       14.2480   -4.2390   14.7030 C.ar  219  TYR219     -0.0009
    121  CE1       16.4160   -3.2580   13.2770 C.ar  219  TYR219      0.0417
    122  CE2       14.2060   -2.9530   14.1770 C.ar  219  TYR219      0.0417
    123  CZ        15.2910   -2.4670   13.4680 C.ar  219  TYR219      0.1957
    124  OH        15.2510   -1.1860   12.9700 O.3   219  TYR219     -0.2866
    125  N          4.5210   -5.6090   13.2960 N.3   228  TRP228     -0.1241
    126  CA         5.1410   -5.4950   11.9850 C.3   228  TRP228      0.1605
    127  C          6.2220   -6.5570   11.8190 C.2   228  TRP228      0.2264
    128  O          6.4530   -7.0580   10.7180 O.2   228  TRP228     -0.2867
    129  CB         5.7470   -4.1000   11.7820 C.3   228  TRP228      0.0550
    130  CG         6.8710   -3.7610   12.7250 C.ar  228  TRP228      0.0003
    131  CD1        6.7920   -3.0110   13.8640 C.ar  228  TRP228      0.0946
    132  CD2        8.2420   -4.1690   12.6080 C.ar  228  TRP228      0.0152
    133  NE1        8.0300   -2.9230   14.4620 N.ar  228  TRP228     -0.2442
    134  CE2        8.9350   -3.6250   13.7130 C.ar  228  TRP228      0.0810
    135  CE3        8.9500   -4.9420   11.6780 C.ar  228  TRP228      0.0012
    136  CZ2       10.3060   -3.8300   13.9110 C.ar  228  TRP228      0.0191
    137  CZ3       10.3150   -5.1460   11.8770 C.ar  228  TRP228      0.0001
    138  CH2       10.9740   -4.5910   12.9870 C.ar  228  TRP228      0.0015
    139  N          6.1890   -9.6040    9.0100 N.3   232  GLU232     -0.1245
    140  CA         7.2900   -9.8400    8.0850 C.3   232  GLU232      0.1567
    141  C          7.9050  -11.2210    8.2880 C.2   232  GLU232      0.2260
    142  O          8.4760  -11.7940    7.3610 O.2   232  GLU232     -0.2867
    143  CB         8.3670   -8.7610    8.2460 C.3   232  GLU232      0.0388
    144  CG         9.3600   -8.7150    7.0910 C.3   232  GLU232      0.1160
    145  CD        10.3030   -7.5260    7.1660 C.2   232  GLU232      0.3649
    146  OE1       11.2020   -7.5300    8.0350 O.co2 232  GLU232     -0.2457
    147  OE2       10.1400   -6.5840    6.3570 O.co2 232  GLU232     -0.2457
@<TRIPOS>BOND
     1    13    14    1
     2    13    10    1
     3     1     2    1
     4     9    10    1
     5     9     3   am
     6    10    11    1
     7     2     3    1
     8     2     5    1
     9     3     4    2
    10     6     5    1
    11     6     8    1
    12    11    15   am
    13    11    12    2
    14     5     7    1
    15    15    16    1
    16    20    19    1
    17    16    19    1
    18    16    17    1
    19    29    28    2
    20   147   145   ar
    21    21    17   am
    22    21    22    1
    23    17    18    2
    24    25    22    1
    25   144   145    1
    26   144   143    1
    27    28    27    1
    28    28    30   am
    29   145   146   ar
    30    31    32    1
    31    31    30    1
    32    31    34    1
    33   142   141    2
    34    26    27    1
    35    26    23   am
    36    32    33    2
    37   102   100   am
    38    22    23    1
    39    38    36   ar
    40    35    34    1
    41    35    36    1
    42   106   105    2
    43    23    24    2
    44   140   143    1
    45   140   141    1
    46   140   139    1
    47    99   100    1
    48    99    96    1
    49    36    37   ar
    50   100   101    2
    51   105   104    1
    52    95    96    1
    53    95    92   am
    54    98    97    2
    55    96    97    1
    56    97   103   am
    57    84    83    2
    58   103   104    1
    59   104   107    1
    60    91    94    1
    61    91    92    1
    62    91    90    1
    63    92    93    2
    64   110   112   ar
    65   110   108   ar
    66   112   111   ar
    67    83    90   am
    68    83    82    1
    69   128   127    2
    70    85    86    1
    71    85    82    1
    72   108   107    1
    73   108   109   ar
    74    87    86    1
    75    87    88    1
    76   111   109   ar
    77    82    81    1
    78   135   137   ar
    79   135   132   ar
    80   129   126    1
    81   129   130    1
    82   127   126    1
    83   137   138   ar
    84   126   125    1
    85    89    88    1
    86   132   130   ar
    87   132   134   ar
    88   130   131   ar
    89    81    73   am
    90   124   123    1
    91   138   136   ar
    92   121   123   ar
    93   121   119   ar
    94   123   122   ar
    95   113   114    1
    96   134   136   ar
    97   134   133   ar
    98   119   118   ar
    99   131   133   ar
   100    73    74    2
   101    73    72    1
   102   122   120   ar
   103   118   120   ar
   104   118   117    1
   105    66    65    2
   106    71    72    1
   107   114   117    1
   108   114   115    1
   109    72    75    1
   110    80    79   ar
   111    80    78   ar
   112    79    77   ar
   113    78    76   ar
   114    65    64    1
   115    77    76   ar
   116    76    75    1
   117   115   116    2
   118    45    47   ar
   119    45    44   ar
   120    61    60    2
   121    47    49   ar
   122    39    40    1
   123    64    67    1
   124    64    63    1
   125    69    68    2
   126    67    68    1
   127    54    53    2
   128    68    70   am
   129    40    43    1
   130    40    41    1
   131    43    44    1
   132    44    46   ar
   133    60    62   am
   134    60    59    1
   135    49    50    1
   136    49    48   ar
   137    53    52    1
   138    53    55   am
   139    52    51    1
   140    46    48   ar
   141    41    42    2
   142    59    56    1
   143    56    55    1
   144    56    57    1
   145    57    58    2
