@<TRIPOS>MOLECULE
tmp/3cbqA00.pdb
 92 88 0 0 0
SMALL
GASTEIGER

@<TRIPOS>ATOM
      1  N         16.4210   24.9750   -1.4660 N.3    11  SER11      -0.1202
      2  CA        15.6300   26.1160   -1.0330 C.3    11  SER11       0.2020
      3  C         14.6630   26.5310   -2.1460 C.2    11  SER11       0.2619
      4  O         14.9580   26.3960   -3.3350 O.2    11  SER11      -0.2717
      5  CB        16.5290   27.2750   -0.5890 C.3    11  SER11       0.2103
      6  OG        17.1260   27.9050   -1.6840 O.3    11  SER11      -0.2182
      7  N         13.4970   27.0070   -1.7420 N.am   12  GLY12      -0.1942
      8  CA        12.5160   27.5390   -2.6620 C.3    12  GLY12       0.2014
      9  C         11.5990   26.5430   -3.3540 C.2    12  GLY12       0.2639
     10  O         10.7220   26.9510   -4.0890 O.2    12  GLY12      -0.2714
     11  N         11.7840   25.2380   -3.1280 N.am   13  VAL13      -0.1963
     12  CA        10.9980   24.2310   -3.8600 C.3    13  VAL13       0.1727
     13  C          9.5460   24.1320   -3.3660 C.2    13  VAL13       0.2617
     14  O          8.6970   23.6650   -4.1020 O.2    13  VAL13      -0.2715
     15  CB        11.6660   22.8370   -3.8310 C.3    13  VAL13       0.0290
     16  CG1       13.0270   22.9240   -4.5870 C.3    13  VAL13       0.0023
     17  CG2       11.8270   22.3440   -2.3880 C.3    13  VAL13       0.0023
     18  N          9.2830   24.5960   -2.1340 N.am   14  GLY14      -0.1940
     19  CA         7.9420   24.5620   -1.5330 C.3    14  GLY14       0.2014
     20  C          7.8120   23.6010   -0.3560 C.2    14  GLY14       0.2639
     21  O          6.7210   23.0970   -0.0740 O.2    14  GLY14      -0.2714
     22  N          8.9090   23.3520    0.3630 N.am   15  LYS15      -0.1963
     23  CA         8.8890   22.4220    1.5240 C.3    15  LYS15       0.1728
     24  C          8.0180   22.9640    2.6500 C.2    15  LYS15       0.2617
     25  O          7.1510   22.2710    3.1650 O.2    15  LYS15      -0.2715
     26  CB        10.2980   22.1900    2.0570 C.3    15  LYS15       0.0311
     27  CG        11.2230   21.4290    1.0930 C.3    15  LYS15       0.0038
     28  CD        12.6170   21.2030    1.7010 C.3    15  LYS15       0.0206
     29  CE        13.3440   22.4740    2.1070 C.3    15  LYS15       0.1093
     30  NZ        13.5320   23.4820    0.9860 N.3    15  LYS15      -0.1314
     31  N          8.2360   24.2170    3.0170 N.am   16  SER16      -0.1936
     32  CA         7.4700   24.8130    4.0970 C.3    16  SER16       0.2055
     33  C          5.9950   24.9270    3.7150 C.2    16  SER16       0.2643
     34  O          5.1090   24.6810    4.5330 O.2    16  SER16      -0.2714
     35  CB         8.0510   26.1650    4.4420 C.3    16  SER16       0.2130
     36  OG         9.3490   25.9660    4.9720 O.3    16  SER16      -0.2179
     37  N          5.7520   25.2940    2.4700 N.am   17  THR17      -0.1950
     38  CA         4.3740   25.4070    1.9290 C.3    17  THR17       0.1897
     39  C          3.6580   24.0380    1.9310 C.2    17  THR17       0.2313
     40  O          2.5190   23.9390    2.4280 O.2    17  THR17      -0.2863
     41  CB         4.3460   26.0960    0.5220 C.3    17  THR17       0.1794
     42  OG1        5.0280   27.3640    0.5960 O.3    17  THR17      -0.2208
     43  CG2        2.8780   26.2910   -0.0020 C.3    17  THR17       0.0378
     44  N          6.9890   19.5610   -7.0530 N.3   117  ASN117     -0.1225
     45  CA         6.0270   20.5560   -6.5660 C.3   117  ASN117      0.1785
     46  C          5.8690   21.7430   -7.5610 C.2   117  ASN117      0.2597
     47  O          6.6310   21.8680   -8.5060 O.2   117  ASN117     -0.2718
     48  CB         6.4420   21.0510   -5.1690 C.3   117  ASN117      0.1169
     49  CG         5.3860   21.9290   -4.4950 C.2   117  ASN117      0.2627
     50  OD1        4.1860   21.6000   -4.4640 O.2   117  ASN117     -0.2716
     51  ND2        5.8280   23.0800   -3.9800 N.am  117  ASN117     -0.0877
     52  N          4.8570   22.5770   -7.3220 N.am  118  LYS118     -0.1980
     53  CA         4.5140   23.7990   -8.1330 C.3   118  LYS118      0.1596
     54  C          3.9430   23.4570   -9.4850 C.2   118  LYS118      0.2287
     55  O          4.1170   24.2240  -10.4570 O.2   118  LYS118     -0.2864
     56  CB         5.6870   24.8000   -8.2820 C.3   118  LYS118      0.0298
     57  CG         6.3910   25.1140   -7.0150 C.3   118  LYS118      0.0038
     58  CD         7.0890   26.4730   -7.0580 C.3   118  LYS118      0.0206
     59  CE         7.9650   26.6880   -5.8410 C.3   118  LYS118      0.1093
     60  NZ         8.8150   27.9500   -5.8970 N.3   118  LYS118     -0.1314
     61  N          1.0730   23.7680  -10.5220 N.3   120  ASP120     -0.1225
     62  CA         0.1290   24.7840  -11.0120 C.3   120  ASP120      0.1805
     63  C          0.7890   25.8490  -11.9090 C.2   120  ASP120      0.2597
     64  O          0.0870   26.5110  -12.6940 O.2   120  ASP120     -0.2718
     65  CB        -0.5900   25.4520   -9.8510 C.3   120  ASP120      0.1424
     66  CG         0.3690   26.1720   -8.8980 C.2   120  ASP120      0.3668
     67  OD1        1.1200   25.4670   -8.1950 O.co2 120  ASP120     -0.2456
     68  OD2        0.3640   27.4270   -8.8380 O.co2 120  ASP120     -0.2456
     69  N          2.1150   26.0070  -11.8020 N.am  121  LEU121     -0.1979
     70  CA         2.8490   27.0700  -12.5180 C.3   121  LEU121      0.1596
     71  C          3.2330   26.6230  -13.9250 C.2   121  LEU121      0.2287
     72  O          4.4160   26.4360  -14.2490 O.2   121  LEU121     -0.2864
     73  CB         4.0860   27.5240  -11.7010 C.3   121  LEU121      0.0297
     74  CG         3.7990   28.3240  -10.4140 C.3   121  LEU121      0.0022
     75  CD1        5.0920   28.8410   -9.7490 C.3   121  LEU121      0.0001
     76  CD2        2.8180   29.4690  -10.6120 C.3   121  LEU121      0.0001
     77  N          0.7370   20.5170   -6.2050 N.3   147  SER147     -0.1202
     78  CA         0.6830   21.9390   -6.0210 C.3   147  SER147      0.2020
     79  C          0.3900   22.2060   -4.5960 C.2   147  SER147      0.2619
     80  O         -0.7990   22.1060   -4.1620 O.2   147  SER147     -0.2717
     81  CB        -0.3880   22.5610   -6.8890 C.3   147  SER147      0.2103
     82  OG        -0.4250   23.9270   -6.6440 O.3   147  SER147     -0.2182
     83  N          1.4320   22.5610   -3.8240 N.am  148  ALA148     -0.1965
     84  CA         1.2440   22.9470   -2.4380 C.3   148  ALA148      0.1728
     85  C          0.2700   24.1640   -2.3290 C.2   148  ALA148      0.2616
     86  O         -0.5080   24.2600   -1.3740 O.2   148  ALA148     -0.2715
     87  CB         2.6170   23.3150   -1.7990 C.3   148  ALA148      0.0334
     88  N          0.3390   25.0810   -3.3170 N.am  149  ALA149     -0.1977
     89  CA        -0.4830   26.3040   -3.3370 C.3   149  ALA149      0.1597
     90  C         -1.9620   25.9540   -3.4280 C.2   149  ALA149      0.2287
     91  O         -2.7840   26.5470   -2.7200 O.2   149  ALA149     -0.2864
     92  CB        -0.1020   27.1760   -4.5050 C.3   149  ALA149      0.0319
@<TRIPOS>BOND
     1    72    71    2
     2    71    70    1
     3    64    63    2
     4    70    69    1
     5    70    73    1
     6    63    69   am
     7    63    62    1
     8    73    74    1
     9    62    61    1
    10    62    65    1
    11    76    74    1
    12    55    54    2
    13    74    75    1
    14    65    66    1
    15    54    53    1
    16    66    68   ar
    17    66    67   ar
    18    47    46    2
    19    56    53    1
    20    56    57    1
    21    53    52    1
    22    46    52   am
    23    46    45    1
    24    58    57    1
    25    58    59    1
    26    44    45    1
    27    81    82    1
    28    81    78    1
    29    45    48    1
    30    77    78    1
    31    78    79    1
    32    60    59    1
    33    48    49    1
    34    79    80    2
    35    79    83   am
    36    16    15    1
    37    92    89    1
    38    49    50    2
    39    49    51   am
    40    14    13    2
    41    10     9    2
    42    12    15    1
    43    12    13    1
    44    12    11    1
    45    15    17    1
    46    83    84    1
    47    90    89    1
    48    90    91    2
    49    13    18   am
    50     9    11   am
    51     9     8    1
    52    89    88    1
    53     4     3    2
    54    88    85   am
    55     8     7    1
    56    84    85    1
    57    84    87    1
    58    85    86    2
    59     3     7   am
    60     3     2    1
    61    18    19    1
    62     6     5    1
    63    19    20    1
    64     1     2    1
    65     2     5    1
    66    20    21    2
    67    20    22   am
    68    43    41    1
    69    22    23    1
    70    41    42    1
    71    41    38    1
    72    30    29    1
    73    27    28    1
    74    27    26    1
    75    23    26    1
    76    23    24    1
    77    28    29    1
    78    38    39    1
    79    38    37    1
    80    39    40    2
    81    37    33   am
    82    24    31   am
    83    24    25    2
    84    31    32    1
    85    33    32    1
    86    33    34    2
    87    32    35    1
    88    35    36    1
