@<TRIPOS>MOLECULE
tmp/3cbsA00.pdb
 167 152 0 0 0
SMALL
GASTEIGER

@<TRIPOS>ATOM
      1  N         17.5570    7.2200   23.4000 N.3    15  PHE15      -0.1241
      2  CA        17.4700    5.8230   23.0130 C.3    15  PHE15       0.1605
      3  C         16.9540    4.9940   24.1890 C.2    15  PHE15       0.2264
      4  O         16.1170    4.1100   24.0150 O.2    15  PHE15      -0.2867
      5  CB        18.8310    5.3060   22.5490 C.3    15  PHE15       0.0534
      6  CG        18.7990    3.8920   22.0500 C.ar   15  PHE15      -0.0203
      7  CD1       18.0290    3.5500   20.9450 C.ar   15  PHE15      -0.0042
      8  CD2       19.5380    2.9010   22.6850 C.ar   15  PHE15      -0.0042
      9  CE1       17.9960    2.2360   20.4760 C.ar   15  PHE15      -0.0003
     10  CE2       19.5120    1.5880   22.2250 C.ar   15  PHE15      -0.0003
     11  CZ        18.7380    1.2560   21.1160 C.ar   15  PHE15      -0.0000
     12  N         13.4020    2.7440   24.5130 N.3    19  LEU19      -0.1245
     13  CA        13.2970    1.3520   24.9300 C.3    19  LEU19       0.1561
     14  C         12.3650    1.2130   26.1270 C.2    19  LEU19       0.2260
     15  O         11.5960    0.2640   26.2120 O.2    19  LEU19      -0.2867
     16  CB        14.6820    0.7930   25.2680 C.3    19  LEU19       0.0270
     17  CG        15.7110    0.8760   24.1340 C.3    19  LEU19       0.0019
     18  CD1       17.0030    0.2040   24.5720 C.3    19  LEU19       0.0001
     19  CD2       15.1670    0.2080   22.8750 C.3    19  LEU19       0.0001
     20  N         11.1680   -2.7000   27.3810 N.3    24  VAL24      -0.1245
     21  CA        12.4430   -3.3900   27.5680 C.3    24  VAL24       0.1561
     22  C         12.8490   -3.2520   29.0450 C.2    24  VAL24       0.2260
     23  O         12.9110   -2.1340   29.5640 O.2    24  VAL24      -0.2867
     24  CB        13.5190   -2.7690   26.6540 C.3    24  VAL24       0.0252
     25  CG1       14.8350   -3.5100   26.8090 C.3    24  VAL24       0.0019
     26  CG2       13.0470   -2.8140   25.2000 C.3    24  VAL24       0.0019
     27  N         18.2500   -4.9990   30.3500 N.3    28  LEU28      -0.1245
     28  CA        18.3840   -5.1400   28.9030 C.3    28  LEU28       0.1561
     29  C         18.5900   -3.7640   28.3060 C.2    28  LEU28       0.2260
     30  O         19.2970   -3.5830   27.3180 O.2    28  LEU28      -0.2867
     31  CB        17.1180   -5.7400   28.2960 C.3    28  LEU28       0.0270
     32  CG        17.1780   -7.1740   27.7880 C.3    28  LEU28       0.0019
     33  CD1       15.8520   -7.5110   27.1190 C.3    28  LEU28       0.0001
     34  CD2       18.3210   -7.3220   26.8000 C.3    28  LEU28       0.0001
     35  N         21.4680   -2.8570   25.9430 N.3    32  ALA32      -0.1245
     36  CA        21.1280   -2.3410   24.6210 C.3    32  ALA32       0.1562
     37  C         21.8110   -1.0090   24.3330 C.2    32  ALA32       0.2260
     38  O         22.4100   -0.8310   23.2760 O.2    32  ALA32      -0.2867
     39  CB        19.6180   -2.1830   24.4970 C.3    32  ALA32       0.0290
     40  N         25.5290   -1.5750   23.7300 N.3    35  ALA35      -0.1231
     41  CA        25.7550   -2.1860   22.4310 C.3    35  ALA35       0.1694
     42  C         25.4680   -1.2120   21.2970 C.2    35  ALA35       0.2591
     43  O         26.2120   -1.1480   20.3230 O.2    35  ALA35      -0.2718
     44  CB        24.8840   -3.4270   22.2830 C.3    35  ALA35       0.0304
     45  N         24.3900   -0.4510   21.4420 N.am   36  ALA36      -0.1980
     46  CA        23.9690    0.5060   20.4270 C.3    36  ALA36       0.1597
     47  C         24.8000    1.7800   20.3850 C.2    36  ALA36       0.2287
     48  O         24.5680    2.6420   19.5340 O.2    36  ALA36      -0.2864
     49  CB        22.4950    0.8560   20.6300 C.3    36  ALA36       0.0319
     50  N         27.5010    0.8720   17.0400 N.3    39  PRO39      -0.2116
     51  CA        27.0200   -0.0040   15.9780 C.3    39  PRO39       0.1372
     52  C         27.8380    0.1630   14.7050 C.2    39  PRO39       0.2244
     53  O         28.5660    1.1420   14.5410 O.2    39  PRO39      -0.2868
     54  CB        25.5910    0.4790   15.7860 C.3    39  PRO39       0.0268
     55  CG        25.7750    1.9770   15.9340 C.3    39  PRO39       0.0207
     56  CD        26.5620    1.9930   17.2400 C.3    39  PRO39       0.0892
     57  N         27.1450    0.3950   10.7860 N.3    41  VAL41      -0.1245
     58  CA        26.0320    0.5620    9.8700 C.3    41  VAL41       0.1561
     59  C         26.5140    0.5630    8.4350 C.2    41  VAL41       0.2260
     60  O         27.3690    1.3580    8.0540 O.2    41  VAL41      -0.2867
     61  CB        25.2660    1.8650   10.1550 C.3    41  VAL41       0.0252
     62  CG1       24.1290    2.0380    9.1530 C.3    41  VAL41       0.0019
     63  CG2       24.7190    1.8320   11.5700 C.3    41  VAL41       0.0019
     64  N         22.6330   -3.1720   10.2930 N.3    54  THR54      -0.1218
     65  CA        23.0250   -2.4910   11.5190 C.3    54  THR54       0.1862
     66  C         23.4950   -3.5730   12.4820 C.2    54  THR54       0.2287
     67  O         22.7060   -4.4040   12.9230 O.2    54  THR54      -0.2866
     68  CB        21.8330   -1.7210   12.1250 C.3    54  THR54       0.1770
     69  OG1       21.2930   -0.8310   11.1390 O.3    54  THR54      -0.2211
     70  CG2       22.2860   -0.8990   13.3370 C.3    54  THR54       0.0375
     71  N         25.5300   -4.8890   16.0460 N.3    56  THR56      -0.1218
     72  CA        25.9940   -4.6300   17.4020 C.3    56  THR56       0.1862
     73  C         26.2870   -6.0260   17.9230 C.2    56  THR56       0.2287
     74  O         25.8790   -7.0210   17.3190 O.2    56  THR56      -0.2866
     75  CB        24.9240   -3.9890   18.3070 C.3    56  THR56       0.1770
     76  OG1       23.8990   -4.9470   18.6020 O.3    56  THR56      -0.2211
     77  CG2       24.3160   -2.7750   17.6320 C.3    56  THR56       0.0375
     78  N         25.0430   -7.6210   20.4760 N.3    58  VAL58      -0.1231
     79  CA        23.8790   -8.3870   20.9100 C.3    58  VAL58       0.1692
     80  C         22.7260   -8.4740   19.9260 C.2    58  VAL58       0.2591
     81  O         21.8040   -9.2530   20.1320 O.2    58  VAL58      -0.2718
     82  CB        23.3200   -7.8640   22.2590 C.3    58  VAL58       0.0266
     83  CG1       24.3890   -7.9530   23.3350 C.3    58  VAL58       0.0020
     84  CG2       22.8300   -6.4430   22.1150 C.3    58  VAL58       0.0020
     85  N         22.7640   -7.6800   18.8610 N.am   59  ARG59      -0.1980
     86  CA        21.6880   -7.7180   17.8760 C.3    59  ARG59       0.1597
     87  C         22.1070   -7.0900   16.5610 C.2    59  ARG59       0.2287
     88  O         22.6410   -5.9830   16.5210 O.2    59  ARG59      -0.2864
     89  CB        20.4430   -7.0070   18.4180 C.3    59  ARG59       0.0334
     90  CG        19.2570   -6.9050   17.4450 C.3    59  ARG59       0.0492
     91  CD        18.0920   -6.2100   18.1440 C.3    59  ARG59       0.2205
     92  NE        17.0010   -5.8020   17.2620 N.pl3  59  ARG59      -0.0865
     93  CZ        16.1690   -6.6290   16.6360 C.cat  59  ARG59       0.5346
     94  NH1       16.2850   -7.9440   16.7810 N.pl3  59  ARG59       0.1354
     95  NH2       15.2100   -6.1330   15.8620 N.pl3  59  ARG59       0.1354
     96  N         20.5690   -6.4230   12.6490 N.3    61  THR61      -0.1218
     97  CA        19.3940   -6.4410   11.8050 C.3    61  THR61       0.1862
     98  C         19.8450   -6.2040   10.3830 C.2    61  THR61       0.2287
     99  O         20.7890   -5.4540   10.1350 O.2    61  THR61      -0.2866
    100  CB        18.3990   -5.3490   12.2020 C.3    61  THR61       0.1770
    101  OG1       19.0190   -4.0650   12.0680 O.3    61  THR61      -0.2211
    102  CG2       17.9490   -5.5470   13.6370 C.3    61  THR61       0.0375
    103  N         12.5160   -1.9370   17.1390 N.3    76  VAL76      -0.1231
    104  CA        13.8170   -1.9550   17.7780 C.3    76  VAL76       0.1692
    105  C         13.9210   -2.9910   18.8960 C.2    76  VAL76       0.2592
    106  O         15.0070   -3.4900   19.1710 O.2    76  VAL76      -0.2718
    107  CB        14.1750   -0.5480   18.3190 C.3    76  VAL76       0.0266
    108  CG1       13.0830   -0.0520   19.2280 C.3    76  VAL76       0.0020
    109  CG2       15.4960   -0.5870   19.0510 C.3    76  VAL76       0.0020
    110  N         12.8030   -3.3350   19.5300 N.am   77  ASP77      -0.1974
    111  CA        12.8550   -4.3150   20.6130 C.3    77  ASP77       0.1709
    112  C         12.5670   -5.7500   20.1600 C.2    77  ASP77       0.2293
    113  O         12.2910   -6.6360   20.9790 O.2    77  ASP77      -0.2864
    114  CB        11.9180   -3.9110   21.7610 C.3    77  ASP77       0.1436
    115  CG        10.4530   -3.9970   21.3880 C.2    77  ASP77       0.3671
    116  OD1       10.0470   -3.3670   20.3870 O.co2  77  ASP77      -0.2456
    117  OD2        9.7070   -4.6940   22.1120 O.co2  77  ASP77      -0.2456
    118  N         14.9470    8.2500    8.1110 N.3   111  ARG111     -0.1245
    119  CA        16.3660    8.3840    7.8360 C.3   111  ARG111      0.1563
    120  C         16.4880    9.5370    6.8620 C.2   111  ARG111      0.2260
    121  O         15.8080    9.5700    5.8390 O.2   111  ARG111     -0.2867
    122  CB        16.9460    7.1030    7.2300 C.3   111  ARG111      0.0307
    123  CG        17.1300    5.9740    8.2360 C.3   111  ARG111      0.0489
    124  CD        17.9910    4.8720    7.6460 C.3   111  ARG111      0.2205
    125  NE        18.4750    3.9380    8.6590 N.pl3 111  ARG111     -0.0865
    126  CZ        17.7350    3.0060    9.2500 C.cat 111  ARG111      0.5346
    127  NH1       16.4540    2.8640    8.9340 N.pl3 111  ARG111      0.1354
    128  NH2       18.2860    2.2080   10.1570 N.pl3 111  ARG111      0.1354
    129  N         18.9640    9.4520   11.9320 N.3   121  LEU121     -0.1245
    130  CA        18.0070    8.3750   12.1160 C.3   121  LEU121      0.1561
    131  C         17.1030    8.8180   13.2440 C.2   121  LEU121      0.2260
    132  O         17.5730    9.1920   14.3150 O.2   121  LEU121     -0.2867
    133  CB        18.6990    7.0760   12.5360 C.3   121  LEU121      0.0270
    134  CG        17.7620    5.9860   13.0820 C.3   121  LEU121      0.0019
    135  CD1       16.7610    5.5680   12.0180 C.3   121  LEU121      0.0001
    136  CD2       18.5890    4.7820   13.5590 C.3   121  LEU121      0.0001
    137  N         13.8410    7.5550   15.5350 N.3   123  MET123     -0.1245
    138  CA        12.9800    6.4350   15.8850 C.3   123  MET123      0.1570
    139  C         11.9870    6.9560   16.9010 C.2   123  MET123      0.2261
    140  O         12.3460    7.7220   17.7960 O.2   123  MET123     -0.2867
    141  CB        13.7840    5.2730   16.4790 C.3   123  MET123      0.0387
    142  CG        14.5980    4.5050   15.4500 C.3   123  MET123      0.0595
    143  SD        15.4880    3.1180   16.1750 S.3   123  MET123     -0.1393
    144  CE        16.6430    3.9910   17.1940 C.3   123  MET123      0.0692
    145  N         19.3740    9.8100   16.3900 N.3   132  ARG132     -0.1245
    146  CA        20.7270    9.2760   16.2730 C.3   132  ARG132      0.1563
    147  C         21.3590    9.8520   15.0090 C.2   132  ARG132      0.2260
    148  O         20.7510    9.8490   13.9370 O.2   132  ARG132     -0.2867
    149  CB        20.6840    7.7460   16.2550 C.3   132  ARG132      0.0307
    150  CG        20.2360    7.1790   17.6090 C.3   132  ARG132      0.0489
    151  CD        19.8060    5.7240   17.5420 C.3   132  ARG132      0.2205
    152  NE        20.8620    4.7590   17.2350 N.pl3 132  ARG132     -0.0865
    153  CZ        21.7970    4.3410   18.0860 C.cat 132  ARG132      0.5346
    154  NH1       21.8460    4.7960   19.3340 N.pl3 132  ARG132      0.1354
    155  NH2       22.6610    3.4210   17.6970 N.pl3 132  ARG132      0.1354
    156  N         24.6800    9.9730   12.3540 N.3   134  TYR134     -0.1241
    157  CA        25.8290    9.2260   11.8620 C.3   134  TYR134      0.1605
    158  C         26.5920   10.0150   10.8100 C.2   134  TYR134      0.2264
    159  O         26.0240   10.8500   10.1070 O.2   134  TYR134     -0.2867
    160  CB        25.4010    7.9060   11.2180 C.3   134  TYR134      0.0534
    161  CG        24.4610    7.0730   12.0430 C.ar  134  TYR134     -0.0201
    162  CD1       23.1660    7.5110   12.2890 C.ar  134  TYR134     -0.0009
    163  CD2       24.8540    5.8440   12.5680 C.ar  134  TYR134     -0.0009
    164  CE1       22.2850    6.7590   13.0300 C.ar  134  TYR134      0.0417
    165  CE2       23.9660    5.0700   13.3220 C.ar  134  TYR134      0.0417
    166  CZ        22.6850    5.5450   13.5410 C.ar  134  TYR134      0.1957
    167  OH        21.7780    4.8290   14.2720 O.3   134  TYR134     -0.2866
@<TRIPOS>BOND
     1   121   120    2
     2   120   119    1
     3   122   119    1
     4   122   123    1
     5   124   123    1
     6   124   125    1
     7   119   118    1
     8    60    59    2
     9    59    58    1
    10   125   126    2
    11   127   126    1
    12    62    61    1
    13   126   128    1
    14    58    61    1
    15    58    57    1
    16   159   158    2
    17    99    98    2
    18    61    63    1
    19    64    65    1
    20    98    97    1
    21   158   157    1
    22    69    68    1
    23   160   157    1
    24   160   161    1
    25    65    68    1
    26    65    66    1
    27    97   100    1
    28    97    96    1
    29   157   156    1
    30   129   130    1
    31   135   134    1
    32   161   162   ar
    33   161   163   ar
    34   101   100    1
    35   130   133    1
    36   130   131    1
    37    68    70    1
    38   100   102    1
    39   162   164   ar
    40    66    67    2
    41   133   134    1
    42   163   165   ar
    43   164   166   ar
    44   134   136    1
    45   131   132    2
    46   165   166   ar
    47   166   167    1
    48   148   147    2
    49    53    52    2
    50    52    51    1
    51   147   146    1
    52   142   143    1
    53   142   141    1
    54   137   138    1
    55    54    55    1
    56    54    51    1
    57    95    93    1
    58   138   141    1
    59   138   139    1
    60    55    56    1
    61    51    50    1
    62    71    72    1
    63   143   144    1
    64   149   146    1
    65   149   150    1
    66   146   145    1
    67    88    87    2
    68    87    86    1
    69    93    94    1
    70    93    92    2
    71   139   140    2
    72    50    56    1
    73   103   104    1
    74   152   151    1
    75   152   153    2
    76    92    91    1
    77    74    73    2
    78    72    73    1
    79    72    75    1
    80    90    91    1
    81    90    89    1
    82   151   150    1
    83    77    75    1
    84   155   153    1
    85   104   107    1
    86   104   105    1
    87    86    89    1
    88    86    85    1
    89   153   154    1
    90    75    76    1
    91   107   109    1
    92   107   108    1
    93    85    80   am
    94   105   106    2
    95   105   110   am
    96   110   111    1
    97    48    47    2
    98    80    81    2
    99    80    79    1
   100   112   111    1
   101   112   113    2
   102    43    42    2
   103    47    46    1
   104   116   115   ar
   105    46    49    1
   106    46    45    1
   107     9     7   ar
   108     9    11   ar
   109    78    79    1
   110   111   114    1
   111    79    82    1
   112     7     6   ar
   113    11    10   ar
   114    42    45   am
   115    42    41    1
   116   115   114    1
   117   115   117   ar
   118     6     5    1
   119     6     8   ar
   120    84    82    1
   121    10     8   ar
   122    82    83    1
   123    44    41    1
   124    41    40    1
   125     5     2    1
   126    19    17    1
   127     2     1    1
   128     2     3    1
   129    38    37    2
   130     4     3    2
   131    17    18    1
   132    17    16    1
   133    37    36    1
   134    39    36    1
   135    12    13    1
   136    36    35    1
   137    13    16    1
   138    13    14    1
   139    26    24    1
   140    14    15    2
   141    24    25    1
   142    24    21    1
   143    34    32    1
   144    33    32    1
   145    30    29    2
   146    20    21    1
   147    21    22    1
   148    32    31    1
   149    31    28    1
   150    29    28    1
   151    28    27    1
   152    22    23    2
