@<TRIPOS>MOLECULE
tmp/3cbxA00.pdb
 85 87 0 0 0
SMALL
GASTEIGER

@<TRIPOS>ATOM
      1  N         -2.0040    8.0690    4.1900 N.3    24  VAL24      -0.1245
      2  CA        -1.8700    6.9810    5.2020 C.3    24  VAL24       0.1561
      3  C         -3.1830    6.2570    5.3640 C.2    24  VAL24       0.2260
      4  O         -4.2660    6.8470    5.1910 O.2    24  VAL24      -0.2867
      5  CB        -1.3820    7.5140    6.5180 C.3    24  VAL24       0.0252
      6  CG1        0.0720    8.0500    6.3430 C.3    24  VAL24       0.0019
      7  CG2       -2.2750    8.5920    7.0790 C.3    24  VAL24       0.0019
      8  N         -6.3670    8.5070    4.4810 N.3    36  TYR36      -0.1227
      9  CA        -6.3380    9.8550    5.0310 C.3    36  TYR36       0.1736
     10  C         -5.1840   10.6910    4.4770 C.2    36  TYR36       0.2595
     11  O         -4.1460   10.1600    4.0820 O.2    36  TYR36      -0.2718
     12  CB        -6.1180    9.7890    6.5310 C.3    36  TYR36       0.0548
     13  CG        -7.2530    9.2180    7.3520 C.ar   36  TYR36      -0.0200
     14  CD1       -7.3650    7.8540    7.5530 C.ar   36  TYR36      -0.0009
     15  CD2       -8.1650   10.0570    7.9770 C.ar   36  TYR36      -0.0009
     16  CE1       -8.3880    7.3290    8.3130 C.ar   36  TYR36       0.0417
     17  CE2       -9.1900    9.5550    8.7520 C.ar   36  TYR36       0.0417
     18  CZ        -9.3050    8.1750    8.9070 C.ar   36  TYR36       0.1957
     19  OH       -10.3050    7.6330    9.7070 O.3    36  TYR36      -0.2866
     20  N         -5.3350   12.0060    4.5570 N.am   37  ILE37      -0.1966
     21  CA        -4.2310   12.9320    4.2320 C.3    37  ILE37       0.1727
     22  C         -3.2200   12.8710    5.3970 C.2    37  ILE37       0.2617
     23  O         -3.5510   13.2390    6.5570 O.2    37  ILE37      -0.2715
     24  CB        -4.7040   14.4040    4.0650 C.3    37  ILE37       0.0290
     25  CG1       -5.8670   14.5090    3.0690 C.3    37  ILE37       0.0022
     26  CG2       -3.5090   15.3000    3.7110 C.3    37  ILE37       0.0023
     27  CD1       -5.7120   13.8800    1.7060 C.3    37  ILE37       0.0001
     28  N         -2.0130   12.3910    5.1300 N.am   38  GLY38      -0.1940
     29  CA        -0.9640   12.3210    6.1450 C.3    38  GLY38       0.2014
     30  C         -0.3520   13.6760    6.4930 C.2    38  GLY38       0.2639
     31  O         -0.0780   13.9640    7.6590 O.2    38  GLY38      -0.2714
     32  N         -0.1020   14.4920    5.4590 N.am   39  SER39      -0.1949
     33  CA         0.5410   15.7790    5.5640 C.3    39  SER39       0.1924
     34  C          0.3880   16.4310    4.1950 C.2    39  SER39       0.2314
     35  O         -0.0090   15.7750    3.2130 O.2    39  SER39      -0.2863
     36  CB         2.0270   15.6560    5.8920 C.3    39  SER39       0.2116
     37  OG         2.6350   14.7760    4.9570 O.3    39  SER39      -0.2180
     38  N         -4.2250   17.9450    6.9840 N.3    54  PRO54      -0.2102
     39  CA        -3.8380   16.6460    7.4830 C.3    54  PRO54       0.1504
     40  C         -4.8810   16.0320    8.4130 C.2    54  PRO54       0.2576
     41  O         -5.4720   16.7320    9.2640 O.2    54  PRO54      -0.2718
     42  CB        -2.5240   16.9360    8.2310 C.3    54  PRO54       0.0282
     43  CG        -2.0120   18.1290    7.5580 C.3    54  PRO54       0.0208
     44  CD        -3.1910   18.9610    7.1930 C.3    54  PRO54       0.0893
     45  N         -5.1030   14.7310    8.2760 N.am   55  GLY55      -0.1957
     46  CA        -6.1160   14.0490    9.0400 C.3    55  GLY55       0.1869
     47  C         -7.4950   13.9800    8.4170 C.2    55  GLY55       0.2309
     48  O         -8.3200   13.2470    8.8970 O.2    55  GLY55      -0.2863
     49  N         -3.6040   18.6570   14.1750 N.3    99  TRP99      -0.1227
     50  CA        -2.4780   17.7500   14.2260 C.3    99  TRP99       0.1737
     51  C         -1.1760   18.5140   14.2090 C.2    99  TRP99       0.2595
     52  O         -1.0250   19.4900   13.4850 O.2    99  TRP99      -0.2718
     53  CB        -2.5170   16.7630   13.0690 C.3    99  TRP99       0.0564
     54  CG        -3.5190   15.6720   13.2690 C.ar   99  TRP99       0.0003
     55  CD1       -4.7170   15.5650   12.6610 C.ar   99  TRP99       0.0946
     56  CD2       -3.3860   14.5260   14.1020 C.ar   99  TRP99       0.0152
     57  NE1       -5.3680   14.4410   13.0820 N.ar   99  TRP99      -0.2442
     58  CE2       -4.5740   13.7800   13.9740 C.ar   99  TRP99       0.0810
     59  CE3       -2.4180   14.0970   14.9960 C.ar   99  TRP99       0.0012
     60  CZ2       -4.7970   12.5980   14.6620 C.ar   99  TRP99       0.0191
     61  CZ3       -2.6390   12.9080   15.6890 C.ar   99  TRP99       0.0001
     62  CH2       -3.8250   12.1910   15.5370 C.ar   99  TRP99       0.0015
     63  N         -0.2380   18.0130   15.0000 N.am  100  LYS100     -0.1966
     64  CA         1.0570   18.6210   15.1600 C.3   100  LYS100      0.1728
     65  C          2.0680   17.5080   15.1590 C.2   100  LYS100      0.2616
     66  O          1.8560   16.4780   15.7970 O.2   100  LYS100     -0.2715
     67  CB         1.0710   19.3760   16.4790 C.3   100  LYS100      0.0311
     68  CG         2.2880   20.2040   16.7650 C.3   100  LYS100      0.0038
     69  CD         1.9150   21.2910   17.7910 C.3   100  LYS100      0.0206
     70  CE         3.1040   22.0730   18.2780 C.3   100  LYS100      0.1093
     71  NZ         2.7790   22.7250   19.5800 N.3   100  LYS100     -0.1314
     72  N          3.1670   17.7220   14.4280 N.am  101  TRP101     -0.1974
     73  CA         4.3120   16.8200   14.4420 C.3   101  TRP101      0.1640
     74  C          5.3050   17.3490   15.4590 C.2   101  TRP101      0.2290
     75  O          5.7660   18.4850   15.3480 O.2   101  TRP101     -0.2864
     76  CB         4.9840   16.7810   13.0670 C.3   101  TRP101      0.0576
     77  CG         6.0520   15.6990   12.8740 C.ar  101  TRP101      0.0006
     78  CD1        5.8430   14.3720   12.6880 C.ar  101  TRP101      0.0946
     79  CD2        7.4670   15.8980   12.7760 C.ar  101  TRP101      0.0152
     80  NE1        7.0300   13.7180   12.5080 N.ar  101  TRP101     -0.2442
     81  CE2        8.0470   14.6340   12.5480 C.ar  101  TRP101      0.0810
     82  CE3        8.2890   17.0150   12.8600 C.ar  101  TRP101      0.0012
     83  CZ2        9.4140   14.4600   12.3940 C.ar  101  TRP101      0.0191
     84  CZ3        9.6560   16.8570   12.6880 C.ar  101  TRP101      0.0001
     85  CH2       10.2080   15.5790   12.4680 C.ar  101  TRP101      0.0015
@<TRIPOS>BOND
     1    27    25    1
     2    25    24    1
     3    35    34    2
     4    26    24    1
     5    24    21    1
     6    11    10    2
     7     1     2    1
     8    34    33    1
     9    21    20    1
    10    21    22    1
    11    10    20   am
    12    10     9    1
    13     8     9    1
    14    37    36    1
    15     9    12    1
    16    28    22   am
    17    28    29    1
    18     4     3    2
    19     2     3    1
    20     2     5    1
    21    22    23    2
    22    32    33    1
    23    32    30   am
    24    33    36    1
    25    29    30    1
    26     6     5    1
    27    30    31    2
    28     5     7    1
    29    12    13    1
    30    38    44    1
    31    38    39    1
    32    44    43    1
    33    13    14   ar
    34    13    15   ar
    35    39    42    1
    36    39    40    1
    37    14    16   ar
    38    43    42    1
    39    15    17   ar
    40    45    40   am
    41    45    46    1
    42    16    18   ar
    43    40    41    2
    44    47    48    2
    45    47    46    1
    46    17    18   ar
    47    18    19    1
    48    83    85   ar
    49    83    81   ar
    50    85    84   ar
    51    80    81   ar
    52    80    78   ar
    53    81    79   ar
    54    55    57   ar
    55    55    54   ar
    56    84    82   ar
    57    78    77   ar
    58    79    82   ar
    59    79    77   ar
    60    77    76    1
    61    76    73    1
    62    53    54    1
    63    53    50    1
    64    57    58   ar
    65    54    56   ar
    66    52    51    2
    67    58    56   ar
    68    58    60   ar
    69    56    59   ar
    70    49    50    1
    71    51    50    1
    72    51    63   am
    73    72    73    1
    74    72    65   am
    75    73    74    1
    76    60    62   ar
    77    59    61   ar
    78    63    64    1
    79    65    64    1
    80    65    66    2
    81    64    67    1
    82    75    74    2
    83    62    61   ar
    84    67    68    1
    85    68    69    1
    86    69    70    1
    87    70    71    1
