@<TRIPOS>MOLECULE
tmp/3cc1B04.pdb
 83 75 0 0 0
SMALL
GASTEIGER

@<TRIPOS>ATOM
      1  N         34.2540   -4.5130   48.3510 N.3   308  GLY308     -0.1225
      2  CA        35.0230   -3.9600   49.4890 C.3   308  GLY308      0.1811
      3  C         36.3740   -3.4410   49.0650 C.2   308  GLY308      0.2280
      4  O         36.7970   -2.3450   49.4220 O.2   308  GLY308     -0.2866
      5  N         36.0730   -0.4800   46.8080 N.3   311  SER311     -0.1217
      6  CA        35.7070    0.6970   47.5700 C.3   311  SER311      0.1889
      7  C         36.9390    1.3370   48.2190 C.2   311  SER311      0.2288
      8  O         37.0430    2.5690   48.3260 O.2   311  SER311     -0.2866
      9  CB        34.6610    0.3420   48.6350 C.3   311  SER311      0.2089
     10  OG        34.3940    1.5060   49.4140 O.3   311  SER311     -0.2183
     11  N         32.5570    5.9080   56.3040 N.3   337  ASN337     -0.1240
     12  CA        31.4460    5.5000   57.1520 C.3   337  ASN337      0.1653
     13  C         31.9630    5.0690   58.5140 C.2   337  ASN337      0.2266
     14  O         31.4090    4.1800   59.1500 O.2   337  ASN337     -0.2867
     15  CB        30.6350    4.3870   56.4820 C.3   337  ASN337      0.1155
     16  CG        29.7950    4.9030   55.3140 C.2   337  ASN337      0.2627
     17  OD1       30.0530    4.5770   54.1490 O.2   337  ASN337     -0.2716
     18  ND2       28.8130    5.7440   55.6200 N.am  337  ASN337     -0.0877
     19  N         34.7840    3.6150   59.2580 N.3   339  GLU339     -0.1245
     20  CA        35.6650    2.4520   59.2330 C.3   339  GLU339      0.1567
     21  C         37.1110    2.7740   58.8010 C.2   339  GLU339      0.2260
     22  O         37.4000    3.8320   58.2700 O.2   339  GLU339     -0.2867
     23  CB        35.0550    1.3540   58.3630 C.3   339  GLU339      0.0388
     24  CG        35.2800    1.4710   56.8470 C.3   339  GLU339      0.1160
     25  CD        34.4090    2.5280   56.1310 C.2   339  GLU339      0.3649
     26  OE1       33.8500    3.4380   56.7960 O.co2 339  GLU339     -0.2457
     27  OE2       34.3120    2.4440   54.8800 O.co2 339  GLU339     -0.2457
     28  N         40.9230    0.6890   57.2370 N.3   341  TYR341     -0.1241
     29  CA        41.4510   -0.4150   56.4600 C.3   341  TYR341      0.1605
     30  C         42.8930   -0.5620   56.7550 C.2   341  TYR341      0.2264
     31  O         43.6050    0.4170   56.8260 O.2   341  TYR341     -0.2867
     32  CB        41.2350   -0.1990   54.9330 C.3   341  TYR341      0.0534
     33  CG        39.8110   -0.0440   54.6000 C.ar  341  TYR341     -0.0201
     34  CD1       38.9720   -1.1570   54.5380 C.ar  341  TYR341     -0.0009
     35  CD2       39.2640    1.2120   54.4100 C.ar  341  TYR341     -0.0009
     36  CE1       37.6220   -1.0200   54.2730 C.ar  341  TYR341      0.0417
     37  CE2       37.9010    1.3680   54.1530 C.ar  341  TYR341      0.0417
     38  CZ        37.1010    0.2430   54.0730 C.ar  341  TYR341      0.1957
     39  OH        35.7720    0.3800   53.8300 O.3   341  TYR341     -0.2866
     40  N         37.2920   -7.4060   60.2780 N.3   368  PHE368     -0.1241
     41  CA        36.7990   -8.2380   59.1930 C.3   368  PHE368      0.1605
     42  C         37.8640   -8.4530   58.1260 C.2   368  PHE368      0.2264
     43  O         38.6730   -7.5610   57.8360 O.2   368  PHE368     -0.2867
     44  CB        35.5700   -7.5870   58.5480 C.3   368  PHE368      0.0534
     45  CG        34.3880   -7.4630   59.4770 C.ar  368  PHE368     -0.0203
     46  CD1       34.2530   -6.3730   60.3100 C.ar  368  PHE368     -0.0042
     47  CD2       33.4240   -8.4460   59.5220 C.ar  368  PHE368     -0.0042
     48  CE1       33.1990   -6.2710   61.1700 C.ar  368  PHE368     -0.0003
     49  CE2       32.3590   -8.3360   60.3820 C.ar  368  PHE368     -0.0003
     50  CZ        32.2510   -7.2310   61.1940 C.ar  368  PHE368     -0.0000
     51  N         38.4260   -8.5210   54.4140 N.3   370  VAL370     -0.1245
     52  CA        37.7240   -7.8150   53.3180 C.3   370  VAL370      0.1561
     53  C         37.4580   -8.7450   52.1120 C.2   370  VAL370      0.2260
     54  O         36.3670   -8.7530   51.5270 O.2   370  VAL370     -0.2867
     55  CB        38.4470   -6.5120   52.9000 C.3   370  VAL370      0.0252
     56  CG1       37.7890   -5.9150   51.6510 C.3   370  VAL370      0.0019
     57  CG2       38.4450   -5.4830   54.0360 C.3   370  VAL370      0.0019
     58  N         35.0090  -11.4630   53.4370 N.3   373  ARG373     -0.1245
     59  CA        33.8700  -10.8280   54.0850 C.3   373  ARG373      0.1563
     60  C         33.6990  -11.3040   55.5330 C.2   373  ARG373      0.2260
     61  O         32.8360  -10.8130   56.2530 O.2   373  ARG373     -0.2867
     62  CB        32.5790  -11.1120   53.3160 C.3   373  ARG373      0.0307
     63  CG        32.3310  -10.2500   52.0710 C.3   373  ARG373      0.0489
     64  CD        32.5650  -11.0290   50.7520 C.3   373  ARG373      0.2205
     65  NE        32.3530  -10.1870   49.5590 N.pl3 373  ARG373     -0.0865
     66  CZ        32.7390  -10.5020   48.3150 C.cat 373  ARG373      0.5346
     67  NH1       33.3710  -11.6570   48.0810 N.pl3 373  ARG373      0.1354
     68  NH2       32.5010   -9.6530   47.3020 N.pl3 373  ARG373      0.1354
     69  N         39.2330   -4.7770   57.4110 N.3   396  LYS396     -0.1245
     70  CA        38.3590   -3.6460   57.7390 C.3   396  LYS396      0.1561
     71  C         38.2120   -3.5690   59.2450 C.2   396  LYS396      0.2260
     72  O         38.0210   -4.5730   59.9410 O.2   396  LYS396     -0.2867
     73  CB        36.9870   -3.7550   57.0630 C.3   396  LYS396      0.0271
     74  CG        36.0400   -2.6260   57.4940 C.3   396  LYS396      0.0035
     75  CD        34.9050   -2.3810   56.5310 C.3   396  LYS396      0.0206
     76  CE        33.9050   -3.4640   56.5660 C.3   396  LYS396      0.1093
     77  NZ        32.7700   -3.1710   55.5950 N.3   396  LYS396     -0.1314
     78  N         36.1250   -1.9250   62.0470 N.3   398  SER398     -0.1217
     79  CA        34.8130   -1.3770   62.1970 C.3   398  SER398      0.1889
     80  C         34.4920   -1.1460   63.6840 C.2   398  SER398      0.2288
     81  O         34.6310   -2.0400   64.4930 O.2   398  SER398     -0.2866
     82  CB        33.8210   -2.3380   61.5730 C.3   398  SER398      0.2089
     83  OG        32.5580   -1.7340   61.5100 O.3   398  SER398     -0.2183
@<TRIPOS>BOND
     1     5     6    1
     2    68    66    1
     3     6     7    1
     4     6     9    1
     5    67    66    1
     6     7     8    2
     7    66    65    2
     8     1     2    1
     9     9    10    1
    10     3     4    2
    11     3     2    1
    12    65    64    1
    13    64    63    1
    14    54    53    2
    15    56    55    1
    16    63    62    1
    17    53    52    1
    18    55    52    1
    19    55    57    1
    20    62    59    1
    21    52    51    1
    22    58    59    1
    23    39    38    1
    24    38    37   ar
    25    38    36   ar
    26    59    60    1
    27    17    16    2
    28    37    35   ar
    29    36    34   ar
    30    35    33   ar
    31    34    33   ar
    32    33    32    1
    33    27    25   ar
    34    32    29    1
    35    16    18   am
    36    16    15    1
    37    60    61    2
    38    77    76    1
    39    25    26   ar
    40    25    24    1
    41    11    12    1
    42    29    30    1
    43    29    28    1
    44    15    12    1
    45    75    76    1
    46    75    74    1
    47    30    31    2
    48    24    23    1
    49    73    74    1
    50    73    70    1
    51    12    13    1
    52    69    70    1
    53    70    71    1
    54    43    42    2
    55    42    41    1
    56    22    21    2
    57    23    20    1
    58    13    14    2
    59    44    41    1
    60    44    45    1
    61    21    20    1
    62    41    40    1
    63    20    19    1
    64    71    72    2
    65    45    47   ar
    66    45    46   ar
    67    47    49   ar
    68    46    48   ar
    69    49    50   ar
    70    48    50   ar
    71    83    82    1
    72    82    79    1
    73    78    79    1
    74    79    80    1
    75    80    81    2
