@<TRIPOS>MOLECULE
tmp/3cc1A01.pdb
 108 100 0 0 0
SMALL
GASTEIGER

@<TRIPOS>ATOM
      1  N         98.6100   27.3570   33.2550 N.3   321  GLU321     -0.1231
      2  CA        99.5550   26.2570   33.0740 C.3   321  GLU321      0.1699
      3  C         99.7720   25.5070   34.3790 C.2   321  GLU321      0.2592
      4  O         99.9900   24.2910   34.3950 O.2   321  GLU321     -0.2718
      5  CB       100.8790   26.7440   32.4520 C.3   321  GLU321      0.0402
      6  CG       101.8690   25.6460   32.1210 C.3   321  GLU321      0.1161
      7  CD       101.3780   24.7140   31.0280 C.2   321  GLU321      0.3649
      8  OE1      100.6050   25.1770   30.1560 O.co2 321  GLU321     -0.2457
      9  OE2      101.7620   23.5220   31.0510 O.co2 321  GLU321     -0.2457
     10  N         99.6800   26.2160   35.4910 N.am  322  GLY322     -0.1957
     11  CA        99.7720   25.5800   36.7990 C.3   322  GLY322      0.1869
     12  C         98.6920   24.5430   37.0520 C.2   322  GLY322      0.2309
     13  O         98.9830   23.4510   37.4930 O.2   322  GLY322     -0.2863
     14  N         99.0230   21.6340   34.5800 N.3   325  SER325     -0.1217
     15  CA       100.1250   20.7970   34.9740 C.3   325  SER325      0.1889
     16  C         99.7680   19.8010   36.1150 C.2   325  SER325      0.2288
     17  O        100.2790   18.6700   36.1740 O.2   325  SER325     -0.2866
     18  CB       101.2950   21.6880   35.3290 C.3   325  SER325      0.2089
     19  OG       102.2470   20.8960   35.9740 O.3   325  SER325     -0.2183
     20  N        108.6840   18.4730   40.7730 N.3   351  ASN351     -0.1240
     21  CA       109.6840   19.5440   40.9340 C.3   351  ASN351      0.1653
     22  C        109.7880   19.9280   42.4100 C.2   351  ASN351      0.2266
     23  O        109.9810   21.0950   42.7410 O.2   351  ASN351     -0.2867
     24  CB       109.2770   20.7900   40.1180 C.3   351  ASN351      0.1155
     25  CG       110.0250   20.9210   38.7770 C.2   351  ASN351      0.2627
     26  OD1      111.2420   20.7300   38.7080 O.2   351  ASN351     -0.2716
     27  ND2      109.3010   21.2850   37.7250 N.am  351  ASN351     -0.0877
     28  N        107.4740   20.0610   44.6000 N.3   353  GLU353     -0.1245
     29  CA       106.2700   20.6900   45.1100 C.3   353  GLU353      0.1567
     30  C        105.1110   19.7060   45.3190 C.2   353  GLU353      0.2260
     31  O        105.0910   18.6080   44.7980 O.2   353  GLU353     -0.2867
     32  CB       105.8320   21.8520   44.1940 C.3   353  GLU353      0.0388
     33  CG       104.9300   21.4890   43.0070 C.3   353  GLU353      0.1160
     34  CD       105.6710   21.0410   41.7510 C.2   353  GLU353      0.3649
     35  OE1      106.8080   20.5370   41.8740 O.co2 353  GLU353     -0.2457
     36  OE2      105.0860   21.1560   40.6340 O.co2 353  GLU353     -0.2457
     37  N        100.5740   19.7990   46.0040 N.3   355  TYR355     -0.1241
     38  CA        99.3320   20.5110   45.7310 C.3   355  TYR355      0.1605
     39  C         98.2710   20.0200   46.6750 C.2   355  TYR355      0.2264
     40  O         98.1940   18.8130   46.9530 O.2   355  TYR355     -0.2867
     41  CB        98.8710   20.2670   44.2860 C.3   355  TYR355      0.0534
     42  CG        99.8900   20.7070   43.2910 C.ar  355  TYR355     -0.0201
     43  CD1       99.9980   22.0450   42.9480 C.ar  355  TYR355     -0.0009
     44  CD2      100.7550   19.8090   42.7170 C.ar  355  TYR355     -0.0009
     45  CE1      100.9050   22.4610   42.0860 C.ar  355  TYR355      0.0417
     46  CE2      101.6830   20.2260   41.8140 C.ar  355  TYR355      0.0417
     47  CZ       101.7540   21.5620   41.5140 C.ar  355  TYR355      0.1957
     48  OH       102.6940   22.0420   40.6310 O.3   355  TYR355     -0.2866
     49  N        106.2940   27.2120   51.6490 N.3   380  GLN380     -0.1245
     50  CA       105.6330   28.4150   51.1050 C.3   380  GLN380      0.1566
     51  C        104.3040   27.9880   50.4530 C.2   380  GLN380      0.2260
     52  O        104.2600   26.9770   49.7590 O.2   380  GLN380     -0.2867
     53  CB       106.5600   29.1080   50.0560 C.3   380  GLN380      0.0367
     54  CG       107.5300   30.2100   50.6110 C.3   380  GLN380      0.0905
     55  CD       108.8260   30.4350   49.8190 C.2   380  GLN380      0.2608
     56  OE1      109.9020   30.5640   50.4280 O.2   380  GLN380     -0.2717
     57  NE2      108.7410   30.5310   48.4960 N.am  380  GLN380     -0.0878
     58  N        101.1290   28.9300   47.8970 N.3   382  PHE382     -0.1241
     59  CA       100.6720   29.7860   46.7840 C.3   382  PHE382      0.1605
     60  C         99.2950   29.3790   46.3350 C.2   382  PHE382      0.2264
     61  O         98.9400   28.1920   46.3770 O.2   382  PHE382     -0.2867
     62  CB       101.5950   29.6920   45.5680 C.3   382  PHE382      0.0534
     63  CG       102.9930   30.1090   45.8330 C.ar  382  PHE382     -0.0203
     64  CD1      103.9070   29.2270   46.4110 C.ar  382  PHE382     -0.0042
     65  CD2      103.4130   31.3660   45.5120 C.ar  382  PHE382     -0.0042
     66  CE1      105.2110   29.6020   46.6460 C.ar  382  PHE382     -0.0003
     67  CE2      104.7440   31.7560   45.7640 C.ar  382  PHE382     -0.0003
     68  CZ       105.6230   30.8700   46.3300 C.ar  382  PHE382     -0.0000
     69  N         97.1760   28.8120   43.3460 N.3   384  VAL384     -0.1245
     70  CA        97.5770   28.4290   41.9690 C.3   384  VAL384      0.1561
     71  C         96.8150   29.2470   40.9250 C.2   384  VAL384      0.2260
     72  O         97.3880   29.7170   39.9570 O.2   384  VAL384     -0.2867
     73  CB        97.4120   26.9170   41.7020 C.3   384  VAL384      0.0252
     74  CG1       97.6870   26.6130   40.1930 C.3   384  VAL384      0.0019
     75  CG2       98.3280   26.0980   42.6280 C.3   384  VAL384      0.0019
     76  N         98.0660   32.8260   41.0560 N.3   387  ARG387     -0.1245
     77  CA        99.5220   32.8100   41.0200 C.3   387  ARG387      0.1563
     78  C        100.1020   33.7200   42.0890 C.2   387  ARG387      0.2260
     79  O        101.0070   34.4930   41.8100 O.2   387  ARG387     -0.2867
     80  CB       100.0390   33.2670   39.6560 C.3   387  ARG387      0.0307
     81  CG        99.5180   32.4920   38.4910 C.3   387  ARG387      0.0489
     82  CD        99.8430   33.2300   37.2220 C.3   387  ARG387      0.2205
     83  NE        99.0870   32.7030   36.0990 N.pl3 387  ARG387     -0.0865
     84  CZ        99.4710   31.6590   35.3800 C.cat 387  ARG387      0.5346
     85  NH1      100.6080   31.0490   35.6680 N.pl3 387  ARG387      0.1354
     86  NH2       98.7100   31.1980   34.3970 N.pl3 387  ARG387      0.1354
     87  N         99.5970   25.4730   45.9780 N.3   410  LYS410     -0.1245
     88  CA       100.9180   24.8710   45.7520 C.3   410  LYS410      0.1561
     89  C        101.7450   25.0340   46.9990 C.2   410  LYS410      0.2260
     90  O        101.8380   26.1280   47.5550 O.2   410  LYS410     -0.2867
     91  CB       101.6470   25.5190   44.5770 C.3   410  LYS410      0.0271
     92  CG       103.0390   24.9170   44.3130 C.3   410  LYS410      0.0035
     93  CD       103.6180   25.3340   42.9840 C.3   410  LYS410      0.0206
     94  CE       104.3070   26.6750   43.0090 C.3   410  LYS410      0.1093
     95  NZ       104.8050   27.0250   41.6230 N.3   410  LYS410     -0.1314
     96  N        105.4570   24.7650   48.1720 N.3   412  SER412     -0.1203
     97  CA       106.8480   24.5750   47.7700 C.3   412  SER412      0.2005
     98  C        107.7930   24.6620   48.9470 C.2   412  SER412      0.2465
     99  O        107.4540   25.2100   49.9850 O.2   412  SER412     -0.2732
    100  CB       107.2750   25.5060   46.6020 C.3   412  SER412      0.2103
    101  OG       106.8740   26.8380   46.7910 O.3   412  SER412     -0.2182
    102  N        108.9830   24.0870   48.7900 N.am  413  PRO413     -0.2653
    103  CA       109.9400   24.1040   49.8480 C.3   413  PRO413      0.1628
    104  C        110.2550   25.5160   50.3020 C.2   413  PRO413      0.2315
    105  O        110.3170   26.4550   49.5040 O.2   413  PRO413     -0.2861
    106  CB       111.1750   23.4300   49.2510 C.2   413  PRO413     -0.0016
    107  CG       110.8610   23.0770   47.8600 C.2   413  PRO413     -0.0072
    108  CD       109.4860   23.5000   47.5400 C.3   413  PRO413      0.1203
@<TRIPOS>BOND
     1     8     7   ar
     2     7     9   ar
     3     7     6    1
     4     6     5    1
     5     5     2    1
     6     2     1    1
     7     2     3    1
     8     3     4    2
     9     3    10   am
    10    86    84    1
    11    14    15    1
    12    15    18    1
    13    15    16    1
    14    18    19    1
    15    84    85    1
    16    84    83    2
    17    10    11    1
    18    83    82    1
    19    16    17    2
    20    11    12    1
    21    12    13    2
    22    82    81    1
    23    27    25   am
    24    81    80    1
    25    26    25    2
    26    25    24    1
    27    80    77    1
    28    72    71    2
    29    24    21    1
    30    74    73    1
    31    48    47    1
    32    36    34   ar
    33    20    21    1
    34    71    70    1
    35    21    22    1
    36    77    76    1
    37    77    78    1
    38    47    46   ar
    39    47    45   ar
    40    95    94    1
    41    73    70    1
    42    73    75    1
    43    34    35   ar
    44    34    33    1
    45    79    78    2
    46    46    44   ar
    47    70    69    1
    48    45    43   ar
    49    22    23    2
    50    44    42   ar
    51    43    42   ar
    52    93    94    1
    53    93    92    1
    54    33    32    1
    55    42    41    1
    56    32    29    1
    57    41    38    1
    58    92    91    1
    59    91    88    1
    60    28    29    1
    61    31    30    2
    62    29    30    1
    63    65    67   ar
    64    65    63   ar
    65    62    63    1
    66    62    59    1
    67    38    37    1
    68    38    39    1
    69    88    87    1
    70    88    89    1
    71    67    68   ar
    72    63    64   ar
    73    68    66   ar
    74    60    61    2
    75    60    59    1
    76    64    66   ar
    77   100   101    1
    78   100    97    1
    79    39    40    2
    80    59    58    1
    81    89    90    2
    82   108   107    1
    83   108   102    1
    84    97    96    1
    85    97    98    1
    86   107   106    2
    87    57    55   am
    88   102    98   am
    89   102   103    1
    90    98    99    2
    91   106   103    1
    92   105   104    2
    93    52    51    2
    94    55    56    2
    95    55    54    1
    96   103   104    1
    97    53    54    1
    98    53    50    1
    99    51    50    1
   100    50    49    1
