@<TRIPOS>MOLECULE
tmp/3ccbD02.pdb
 126 122 0 0 0
SMALL
GASTEIGER

@<TRIPOS>ATOM
      1  N        -82.0600   -7.7630  -45.4200 N.3    83  ARG83      -0.1245
      2  CA       -83.2690   -7.1770  -44.8410 C.3    83  ARG83       0.1563
      3  C        -84.4390   -8.1570  -44.8460 C.2    83  ARG83       0.2260
      4  O        -85.1830   -8.2480  -43.8660 O.2    83  ARG83      -0.2867
      5  CB       -83.6750   -5.8900  -45.5580 C.3    83  ARG83       0.0307
      6  CG       -84.8740   -5.2100  -44.9190 C.3    83  ARG83       0.0489
      7  CD       -85.3690   -4.0160  -45.7120 C.3    83  ARG83       0.2205
      8  NE       -84.2950   -3.0660  -45.9850 N.pl3  83  ARG83      -0.0865
      9  CZ       -83.9450   -2.0590  -45.1910 C.cat  83  ARG83       0.5346
     10  NH1      -84.5830   -1.8390  -44.0490 N.pl3  83  ARG83       0.1354
     11  NH2      -82.9460   -1.2660  -45.5470 N.pl3  83  ARG83       0.1354
     12  N        -83.4500   -5.6970  -51.8900 N.3   163  GLU163     -0.1231
     13  CA       -83.5450   -4.4600  -51.1400 C.3   163  GLU163      0.1699
     14  C        -84.3770   -3.3900  -51.8370 C.2   163  GLU163      0.2592
     15  O        -85.1890   -2.7200  -51.1970 O.2   163  GLU163     -0.2718
     16  CB       -82.1230   -3.9450  -50.8550 C.3   163  GLU163      0.0402
     17  CG       -82.0110   -2.5390  -50.3030 C.3   163  GLU163      0.1161
     18  CD       -82.3700   -2.4280  -48.8400 C.2   163  GLU163      0.3649
     19  OE1      -82.2760   -1.3060  -48.3070 O.co2 163  GLU163     -0.2457
     20  OE2      -82.7450   -3.4430  -48.2150 O.co2 163  GLU163     -0.2457
     21  N        -84.1910   -3.2470  -53.1470 N.am  164  GLU164     -0.1979
     22  CA       -84.6790   -2.0690  -53.8590 C.3   164  GLU164      0.1602
     23  C        -85.7990   -2.3150  -54.8480 C.2   164  GLU164      0.2287
     24  O        -86.5040   -1.3790  -55.2420 O.2   164  GLU164     -0.2864
     25  CB       -83.5230   -1.3970  -54.5980 C.3   164  GLU164      0.0415
     26  CG       -82.2960   -1.1290  -53.7540 C.3   164  GLU164      0.1163
     27  CD       -82.5270   -0.0690  -52.6890 C.2   164  GLU164      0.3649
     28  OE1      -83.6910    0.1470  -52.2910 O.co2 164  GLU164     -0.2457
     29  OE2      -81.5390    0.5440  -52.2400 O.co2 164  GLU164     -0.2457
     30  N        -91.6340    4.1560  -55.4800 N.3   315  PHE315     -0.1241
     31  CA       -90.3170    3.5330  -55.4430 C.3   315  PHE315      0.1605
     32  C        -90.1650    2.6440  -56.6760 C.2   315  PHE315      0.2264
     33  O        -89.1180    2.6220  -57.3200 O.2   315  PHE315     -0.2867
     34  CB       -90.1270    2.7380  -54.1510 C.3   315  PHE315      0.0534
     35  CG       -90.1400    3.5880  -52.9100 C.ar  315  PHE315     -0.0203
     36  CD1      -88.9750    4.2190  -52.4690 C.ar  315  PHE315     -0.0042
     37  CD2      -91.3130    3.7540  -52.1740 C.ar  315  PHE315     -0.0042
     38  CE1      -88.9810    5.0090  -51.3190 C.ar  315  PHE315     -0.0003
     39  CE2      -91.3280    4.5380  -51.0260 C.ar  315  PHE315     -0.0003
     40  CZ       -90.1570    5.1640  -50.5940 C.ar  315  PHE315     -0.0000
     41  N        -85.4860   12.2680  -41.9500 N.3   505  TYR505     -0.1241
     42  CA       -85.2110   11.2400  -42.9360 C.3   505  TYR505      0.1605
     43  C        -85.0330   11.9050  -44.2930 C.2   505  TYR505      0.2264
     44  O        -83.9400   11.8720  -44.8530 O.2   505  TYR505     -0.2867
     45  CB       -86.2770   10.1450  -42.9690 C.3   505  TYR505      0.0534
     46  CG       -85.8670    9.0150  -43.8740 C.ar  505  TYR505     -0.0201
     47  CD1      -86.5000    8.8130  -45.1010 C.ar  505  TYR505     -0.0009
     48  CD2      -84.8070    8.1700  -43.5240 C.ar  505  TYR505     -0.0009
     49  CE1      -86.1140    7.7890  -45.9520 C.ar  505  TYR505      0.0417
     50  CE2      -84.4080    7.1410  -44.3680 C.ar  505  TYR505      0.0417
     51  CZ       -85.0670    6.9620  -45.5810 C.ar  505  TYR505      0.1957
     52  OH       -84.6720    5.9480  -46.4080 O.3   505  TYR505     -0.2866
     53  N        -79.5030    6.3150  -42.0450 N.3   588  SER588     -0.1202
     54  CA       -79.5520    6.0240  -43.4850 C.3   588  SER588      0.2020
     55  C        -79.5270    7.3300  -44.2690 C.2   588  SER588      0.2618
     56  O        -78.5880    8.1280  -44.1410 O.2   588  SER588     -0.2717
     57  CB       -80.8090    5.2280  -43.8780 C.3   588  SER588      0.2103
     58  OG       -81.0050    4.0800  -43.0750 O.3   588  SER588     -0.2182
     59  N        -80.5690    7.5480  -45.0680 N.am  589  TYR589     -0.1975
     60  CA       -80.7100    8.7790  -45.8280 C.3   589  TYR589      0.1639
     61  C        -80.7290    9.9460  -44.8500 C.2   589  TYR589      0.2290
     62  O        -80.1590   10.9990  -45.1230 O.2   589  TYR589     -0.2864
     63  CB       -81.9940    8.7670  -46.6600 C.3   589  TYR589      0.0560
     64  CG       -81.9750    9.7740  -47.7750 C.ar  589  TYR589     -0.0198
     65  CD1      -81.7670    9.3730  -49.0930 C.ar  589  TYR589     -0.0009
     66  CD2      -82.1410   11.1360  -47.5190 C.ar  589  TYR589     -0.0009
     67  CE1      -81.7390   10.3080  -50.1330 C.ar  589  TYR589      0.0417
     68  CE2      -82.1130   12.0650  -48.5400 C.ar  589  TYR589      0.0417
     69  CZ       -81.9080   11.6470  -49.8430 C.ar  589  TYR589      0.1957
     70  OH       -81.8780   12.5770  -50.8540 O.3   589  TYR589     -0.2866
     71  N        -75.3280    7.8210  -45.9010 N.3   614  VAL614     -0.1245
     72  CA       -74.6800    7.8630  -47.2030 C.3   614  VAL614      0.1561
     73  C        -73.7640    9.0970  -47.1310 C.2   614  VAL614      0.2260
     74  O        -74.0930   10.0700  -46.4410 O.2   614  VAL614     -0.2867
     75  CB       -75.7070    7.9920  -48.3540 C.3   614  VAL614      0.0252
     76  CG1      -75.0200    8.2920  -49.6700 C.3   614  VAL614      0.0019
     77  CG2      -76.5330    6.7170  -48.4780 C.3   614  VAL614      0.0019
     78  N        -73.3080    4.1760  -53.1330 N.3   620  TYR620     -0.1241
     79  CA       -74.5670    3.4830  -52.8460 C.3   620  TYR620      0.1605
     80  C        -75.0700    2.6640  -54.0320 C.2   620  TYR620      0.2264
     81  O        -74.5520    2.8070  -55.1410 O.2   620  TYR620     -0.2867
     82  CB       -75.6310    4.4560  -52.3010 C.3   620  TYR620      0.0534
     83  CG       -76.7390    3.7440  -51.5600 C.ar  620  TYR620     -0.0201
     84  CD1      -76.4680    3.0290  -50.3910 C.ar  620  TYR620     -0.0009
     85  CD2      -78.0510    3.7630  -52.0340 C.ar  620  TYR620     -0.0009
     86  CE1      -77.4700    2.3500  -49.7180 C.ar  620  TYR620      0.0417
     87  CE2      -79.0680    3.0860  -51.3570 C.ar  620  TYR620      0.0417
     88  CZ       -78.7640    2.3810  -50.2020 C.ar  620  TYR620      0.1957
     89  OH       -79.7530    1.7100  -49.5240 O.3   620  TYR620     -0.2866
     90  N        -81.3800    2.1010  -56.3520 N.3   624  TYR624     -0.1241
     91  CA       -81.8940    3.2090  -55.5550 C.3   624  TYR624      0.1605
     92  C        -81.3490    4.5440  -56.0380 C.2   624  TYR624      0.2264
     93  O        -82.1200    5.4500  -56.3500 O.2   624  TYR624     -0.2867
     94  CB       -81.5730    3.0110  -54.0750 C.3   624  TYR624      0.0534
     95  CG       -82.1160    4.0950  -53.1740 C.ar  624  TYR624     -0.0201
     96  CD1      -83.3980    3.9940  -52.6160 C.ar  624  TYR624     -0.0009
     97  CD2      -81.3510    5.2250  -52.8730 C.ar  624  TYR624     -0.0009
     98  CE1      -83.9000    4.9940  -51.7810 C.ar  624  TYR624      0.0417
     99  CE2      -81.8420    6.2260  -52.0390 C.ar  624  TYR624      0.0417
    100  CZ       -83.1140    6.1090  -51.5020 C.ar  624  TYR624      0.1957
    101  OH       -83.5860    7.1070  -50.6750 O.3   624  TYR624     -0.2866
    102  N        -75.3280   -2.7040  -46.5510 N.3   668  ASN668     -0.1225
    103  CA       -76.2300   -1.8090  -47.2690 C.3   668  ASN668      0.1785
    104  C        -75.5720   -0.4490  -47.5160 C.2   668  ASN668      0.2597
    105  O        -75.2310   -0.1200  -48.6560 O.2   668  ASN668     -0.2718
    106  CB       -77.5270   -1.6880  -46.4680 C.3   668  ASN668      0.1169
    107  CG       -78.6540   -1.0380  -47.2360 C.2   668  ASN668      0.2627
    108  OD1      -79.8230   -1.1920  -46.8590 O.2   668  ASN668     -0.2716
    109  ND2      -78.3290   -0.2930  -48.2960 N.am  668  ASN668     -0.0877
    110  N        -75.4070    0.3400  -46.4520 N.am  669  VAL669     -0.1980
    111  CA       -74.5760    1.5350  -46.5100 C.3   669  VAL669      0.1595
    112  C        -73.2240    1.1230  -45.9280 C.2   669  VAL669      0.2287
    113  O        -73.0500    1.0230  -44.7150 O.2   669  VAL669     -0.2864
    114  CB       -75.1750    2.7070  -45.7270 C.3   669  VAL669      0.0276
    115  CG1      -74.2520    3.9080  -45.7840 C.3   669  VAL669      0.0022
    116  CG2      -76.5450    3.0620  -46.2740 C.3   669  VAL669      0.0022
    117  N        -76.7770   -2.4780  -41.1370 N.3   698  HIS698     -0.1241
    118  CA       -77.4850   -1.2080  -41.2640 C.3   698  HIS698      0.1621
    119  C        -78.5430   -0.9750  -40.1920 C.2   698  HIS698      0.2264
    120  O        -78.9090    0.1700  -39.8970 O.2   698  HIS698     -0.2867
    121  CB       -78.1010   -1.0500  -42.6470 C.3   698  HIS698      0.0745
    122  CG       -78.4040    0.3740  -42.9910 C.ar  698  HIS698      0.0817
    123  ND1      -77.4280    1.3460  -43.0630 N.ar  698  HIS698     -0.2268
    124  CD2      -79.5730    0.9940  -43.2660 C.ar  698  HIS698      0.1154
    125  CE1      -77.9850    2.5010  -43.3710 C.ar  698  HIS698      0.1986
    126  NE2      -79.2840    2.3140  -43.5090 N.ar  698  HIS698     -0.2212
@<TRIPOS>BOND
     1    33    32    2
     2    32    31    1
     3    90    91    1
     4    93    92    2
     5    92    91    1
     6    91    94    1
     7    30    31    1
     8    31    34    1
     9    24    23    2
    10    81    80    2
    11    23    22    1
    12    25    22    1
    13    25    26    1
    14    34    35    1
    15    94    95    1
    16    80    79    1
    17    22    21    1
    18    26    27    1
    19    95    97   ar
    20    95    96   ar
    21    21    14   am
    22    78    79    1
    23    35    36   ar
    24    35    37   ar
    25    97    99   ar
    26    79    82    1
    27    27    28   ar
    28    27    29   ar
    29    96    98   ar
    30    36    38   ar
    31    82    83    1
    32    37    39   ar
    33    99   100   ar
    34    85    83   ar
    35    85    87   ar
    36    12    13    1
    37    14    15    2
    38    14    13    1
    39    98   100   ar
    40    83    84   ar
    41   100   101    1
    42    87    88   ar
    43    38    40   ar
    44    13    16    1
    45    39    40   ar
    46    16    17    1
    47    70    69    1
    48    84    86   ar
    49    17    18    1
    50    88    86   ar
    51    88    89    1
    52    67    69   ar
    53    67    65   ar
    54    69    68   ar
    55    76    75    1
    56    65    64   ar
    57    18    19   ar
    58    18    20   ar
    59   105   104    2
    60    68    66   ar
    61    77    75    1
    62    75    72    1
    63   109   107   am
    64    64    66   ar
    65    64    63    1
    66   104   103    1
    67   104   110   am
    68   103   102    1
    69   103   106    1
    70   107   108    2
    71   107   106    1
    72    72    73    1
    73    72    71    1
    74    73    74    2
    75    63    60    1
    76   111   110    1
    77   111   112    1
    78   111   114    1
    79    52    51    1
    80   116   114    1
    81     8     7    1
    82     8     9    2
    83    49    51   ar
    84    49    47   ar
    85   112   113    2
    86    60    59    1
    87    60    61    1
    88   115   114    1
    89     7     6    1
    90    51    50   ar
    91     5     6    1
    92     5     2    1
    93    11     9    1
    94     1     2    1
    95     9    10    1
    96    62    61    2
    97    47    46   ar
    98    59    55   am
    99    44    43    2
   100     3     2    1
   101     3     4    2
   102    50    48   ar
   103    43    42    1
   104    55    56    2
   105    55    54    1
   106    57    54    1
   107    57    58    1
   108    46    48   ar
   109    46    45    1
   110   126   125   ar
   111   126   124   ar
   112    54    53    1
   113   125   123   ar
   114   124   122   ar
   115   123   122   ar
   116   122   121    1
   117    45    42    1
   118    42    41    1
   119   121   118    1
   120   118   117    1
   121   118   119    1
   122   119   120    2
