@<TRIPOS>MOLECULE
tmp/3cccB04.pdb
 160 158 0 0 0
SMALL
GASTEIGER

@<TRIPOS>ATOM
      1  N         41.1130    5.2260   25.2350 N.3    83  ARG83      -0.1245
      2  CA        42.2230    4.6910   24.4490 C.3    83  ARG83       0.1563
      3  C         43.4350    4.2690   25.2980 C.2    83  ARG83       0.2260
      4  O         44.0550    3.2360   25.0310 O.2    83  ARG83      -0.2867
      5  CB        42.6540    5.6770   23.3690 C.3    83  ARG83       0.0307
      6  CG        43.6200    5.0670   22.3620 C.3    83  ARG83       0.0489
      7  CD        44.2100    6.1220   21.4660 C.3    83  ARG83       0.2205
      8  NE        43.2160    6.7110   20.5720 N.pl3  83  ARG83      -0.0865
      9  CZ        42.8360    6.1690   19.4210 C.cat  83  ARG83       0.5346
     10  NH1       43.3460    5.0110   19.0310 N.pl3  83  ARG83       0.1354
     11  NH2       41.9420    6.7800   18.6600 N.pl3  83  ARG83       0.1354
     12  N         43.0750   11.8180   24.7840 N.3   163  GLU163     -0.1231
     13  CA        42.9970   11.4340   23.3790 C.3   163  GLU163      0.1699
     14  C         43.8660   12.2790   22.4550 C.2   163  GLU163      0.2592
     15  O         44.5980   11.7440   21.6260 O.2   163  GLU163     -0.2718
     16  CB        41.5280   11.4450   22.9030 C.3   163  GLU163      0.0402
     17  CG        41.2920   11.0530   21.4260 C.3   163  GLU163      0.1161
     18  CD        41.4990    9.5570   21.1300 C.2   163  GLU163      0.3649
     19  OE1       41.5980    9.1850   19.9340 O.co2 163  GLU163     -0.2457
     20  OE2       41.5690    8.7520   22.0940 O.co2 163  GLU163     -0.2457
     21  N         43.7930   13.5950   22.6380 N.am  164  GLU164     -0.1979
     22  CA        44.2600   14.5560   21.6580 C.3   164  GLU164      0.1602
     23  C         45.5450   15.2870   21.9980 C.2   164  GLU164      0.2287
     24  O         46.1890   15.8490   21.1020 O.2   164  GLU164     -0.2864
     25  CB        43.1550   15.5810   21.4110 C.3   164  GLU164      0.0415
     26  CG        41.8290   14.9880   20.9930 C.3   164  GLU164      0.1163
     27  CD        41.8950   14.2460   19.6660 C.2   164  GLU164      0.3649
     28  OE1       42.9420   14.3370   18.9670 O.co2 164  GLU164     -0.2457
     29  OE2       40.8890   13.5830   19.3200 O.co2 164  GLU164     -0.2457
     30  N         48.2440   11.5380   24.5520 N.3   167  SER167     -0.1217
     31  CA        48.1400   10.1210   24.1730 C.3   167  SER167      0.1889
     32  C         48.4540    9.2460   25.3850 C.2   167  SER167      0.2288
     33  O         49.1740    8.2430   25.3020 O.2   167  SER167     -0.2866
     34  CB        49.0770    9.7930   23.0150 C.3   167  SER167      0.2089
     35  OG        48.6790   10.4740   21.8470 O.3   167  SER167     -0.2183
     36  N         50.8960   16.8170   15.2710 N.3   315  PHE315     -0.1241
     37  CA        49.6520   16.7530   16.0030 C.3   315  PHE315      0.1605
     38  C         49.7540   17.6830   17.2000 C.2   315  PHE315      0.2264
     39  O         48.7420   18.1350   17.7420 O.2   315  PHE315     -0.2867
     40  CB        49.3810   15.3300   16.4730 C.3   315  PHE315      0.0534
     41  CG        48.9200   14.4100   15.3870 C.ar  315  PHE315     -0.0203
     42  CD1       47.5670   14.3060   15.0760 C.ar  315  PHE315     -0.0042
     43  CD2       49.8280   13.6360   14.6840 C.ar  315  PHE315     -0.0042
     44  CE1       47.1250   13.4330   14.0780 C.ar  315  PHE315     -0.0003
     45  CE2       49.4020   12.7730   13.6860 C.ar  315  PHE315     -0.0003
     46  CZ        48.0510   12.6690   13.3840 C.ar  315  PHE315     -0.0000
     47  N         42.3570    6.5860    5.0520 N.3   505  TYR505     -0.1241
     48  CA        42.4270    7.2910    6.3150 C.3   505  TYR505      0.1605
     49  C         42.4300    8.7650    5.9070 C.2   505  TYR505      0.2264
     50  O         41.4300    9.4630    6.0850 O.2   505  TYR505     -0.2867
     51  CB        43.6630    6.8590    7.1190 C.3   505  TYR505      0.0534
     52  CG        44.0580    7.7280    8.2970 C.ar  505  TYR505     -0.0201
     53  CD1       43.2070    8.6880    8.8040 C.ar  505  TYR505     -0.0009
     54  CD2       45.2810    7.5390    8.9360 C.ar  505  TYR505     -0.0009
     55  CE1       43.5740    9.4840    9.8840 C.ar  505  TYR505      0.0417
     56  CE2       45.6620    8.3210   10.0280 C.ar  505  TYR505      0.0417
     57  CZ        44.7960    9.2970   10.4960 C.ar  505  TYR505      0.1957
     58  OH        45.1430   10.0970   11.5750 O.3   505  TYR505     -0.2866
     59  N         37.7460    3.9420    8.3500 N.3   587  TRP587     -0.1227
     60  CA        37.3390    3.9880    9.7510 C.3   587  TRP587      0.1737
     61  C         37.6410    5.4060   10.2860 C.2   587  TRP587      0.2596
     62  O         38.5360    6.0800    9.7730 O.2   587  TRP587     -0.2718
     63  CB        38.1690    2.9490   10.5000 C.3   587  TRP587      0.0564
     64  CG        37.6150    2.4430   11.7960 C.ar  587  TRP587      0.0003
     65  CD1       37.4110    3.1610   12.9360 C.ar  587  TRP587      0.0946
     66  CD2       37.2520    1.0860   12.1050 C.ar  587  TRP587      0.0152
     67  NE1       36.9160    2.3480   13.9270 N.ar  587  TRP587     -0.2442
     68  CE2       36.8150    1.0670   13.4460 C.ar  587  TRP587      0.0810
     69  CE3       37.2490   -0.1160   11.3740 C.ar  587  TRP587      0.0012
     70  CZ2       36.3810   -0.1030   14.0780 C.ar  587  TRP587      0.0191
     71  CZ3       36.8090   -1.2790   12.0010 C.ar  587  TRP587      0.0001
     72  CH2       36.3750   -1.2570   13.3390 C.ar  587  TRP587      0.0015
     73  N         36.9190    5.8500   11.3150 N.am  588  SER588     -0.1938
     74  CA        37.0410    7.2240   11.8500 C.3   588  SER588      0.2055
     75  C         37.1320    8.2470   10.7260 C.2   588  SER588      0.2643
     76  O         36.1880    8.4090    9.9560 O.2   588  SER588     -0.2714
     77  CB        38.2520    7.3810   12.7660 C.3   588  SER588      0.2130
     78  OG        38.6180    6.1450   13.3380 O.3   588  SER588     -0.2179
     79  N         38.2810    8.9120   10.6150 N.am  589  TYR589     -0.1973
     80  CA        38.4880    9.8930    9.5540 C.3   589  TYR589      0.1639
     81  C         38.2720    9.2670    8.1790 C.2   589  TYR589      0.2290
     82  O         37.7180    9.8880    7.2790 O.2   589  TYR589     -0.2864
     83  CB        39.8860   10.5190    9.6400 C.3   589  TYR589      0.0560
     84  CG        39.9380   11.8860    9.0000 C.ar  589  TYR589     -0.0198
     85  CD1       39.9700   13.0420    9.7780 C.ar  589  TYR589     -0.0009
     86  CD2       39.9210   12.0260    7.6060 C.ar  589  TYR589     -0.0009
     87  CE1       39.9990   14.3150    9.1820 C.ar  589  TYR589      0.0417
     88  CE2       39.9510   13.2770    7.0040 C.ar  589  TYR589      0.0417
     89  CZ        39.9870   14.4220    7.7970 C.ar  589  TYR589      0.1957
     90  OH        40.0030   15.6500    7.1920 O.3   589  TYR589     -0.2866
     91  N         33.1770   10.3720   11.2640 N.3   614  VAL614     -0.1245
     92  CA        32.7700   11.7160   11.6010 C.3   614  VAL614      0.1561
     93  C         31.7510   12.1220   10.5250 C.2   614  VAL614      0.2260
     94  O         31.9860   11.9130    9.3310 O.2   614  VAL614     -0.2867
     95  CB        33.9900   12.6930   11.6000 C.3   614  VAL614      0.0252
     96  CG1       33.5470   14.1630   11.4490 C.3   614  VAL614      0.0019
     97  CG2       34.8210   12.5010   12.8610 C.3   614  VAL614      0.0019
     98  N         32.0020   18.1520   11.6980 N.3   617  TRP617     -0.1241
     99  CA        33.0410   18.4810   12.6440 C.3   617  TRP617      0.1605
    100  C         32.5870   19.0940   13.9580 C.2   617  TRP617      0.2264
    101  O         33.2940   19.0150   14.9560 O.2   617  TRP617     -0.2867
    102  CB        34.1030   19.3100   11.9530 C.3   617  TRP617      0.0550
    103  CG        34.7300   18.4960   10.9330 C.ar  617  TRP617      0.0003
    104  CD1       34.5720   18.6100    9.6020 C.ar  617  TRP617      0.0946
    105  CD2       35.5770   17.3630   11.1520 C.ar  617  TRP617      0.0152
    106  NE1       35.2820   17.6220    8.9500 N.ar  617  TRP617     -0.2442
    107  CE2       35.9150   16.8460    9.8830 C.ar  617  TRP617      0.0810
    108  CE3       36.0940   16.7420   12.2950 C.ar  617  TRP617      0.0012
    109  CZ2       36.7510   15.7430    9.7230 C.ar  617  TRP617      0.0191
    110  CZ3       36.9170   15.6380   12.1350 C.ar  617  TRP617      0.0001
    111  CH2       37.2330   15.1490   10.8570 C.ar  617  TRP617      0.0015
    112  N         32.6480   16.1820   16.4780 N.3   620  TYR620     -0.1241
    113  CA        33.9280   15.7760   17.0400 C.3   620  TYR620      0.1605
    114  C         34.5370   16.7760   18.0370 C.2   620  TYR620      0.2264
    115  O         34.1090   17.9410   18.1230 O.2   620  TYR620     -0.2867
    116  CB        34.9210   15.4970   15.9290 C.3   620  TYR620      0.0534
    117  CG        35.9110   14.4740   16.3570 C.ar  620  TYR620     -0.0201
    118  CD1       35.4830   13.2320   16.8170 C.ar  620  TYR620     -0.0009
    119  CD2       37.2550   14.7420   16.3350 C.ar  620  TYR620     -0.0009
    120  CE1       36.3800   12.2790   17.2250 C.ar  620  TYR620      0.0417
    121  CE2       38.1630   13.8080   16.7470 C.ar  620  TYR620      0.0417
    122  CZ        37.7290   12.5710   17.1850 C.ar  620  TYR620      0.1957
    123  OH        38.6440   11.6210   17.5880 O.3   620  TYR620     -0.2866
    124  N         41.2010   18.3730   18.5380 N.3   624  TYR624     -0.1241
    125  CA        41.5500   17.8240   17.2360 C.3   624  TYR624      0.1605
    126  C         40.8940   18.6080   16.1110 C.2   624  TYR624      0.2264
    127  O         41.5260   18.9090   15.1150 O.2   624  TYR624     -0.2867
    128  CB        41.1470   16.3320   17.1310 C.3   624  TYR624      0.0534
    129  CG        41.4370   15.7390   15.7670 C.ar  624  TYR624     -0.0201
    130  CD1       42.6720   15.2070   15.4770 C.ar  624  TYR624     -0.0009
    131  CD2       40.4870   15.7710   14.7570 C.ar  624  TYR624     -0.0009
    132  CE1       42.9550   14.6910   14.2240 C.ar  624  TYR624      0.0417
    133  CE2       40.7600   15.2640   13.4830 C.ar  624  TYR624      0.0417
    134  CZ        41.9980   14.7230   13.2340 C.ar  624  TYR624      0.1957
    135  OH        42.2890   14.2240   11.9980 O.3   624  TYR624     -0.2866
    136  N         34.3830    8.1990   21.4470 N.3   668  ASN668     -0.1225
    137  CA        35.2170    9.0370   20.6000 C.3   668  ASN668      0.1785
    138  C         34.3930    9.7060   19.4810 C.2   668  ASN668      0.2597
    139  O         34.0310   10.8650   19.5960 O.2   668  ASN668     -0.2718
    140  CB        36.3540    8.1840   20.0380 C.3   668  ASN668      0.1169
    141  CG        37.5780    8.9920   19.6530 C.2   668  ASN668      0.2627
    142  OD1       38.6950    8.4590   19.6330 O.2   668  ASN668     -0.2716
    143  ND2       37.3880   10.2820   19.3540 N.am  668  ASN668     -0.0877
    144  N         34.1120    8.9900   18.3960 N.am  669  VAL669     -0.1980
    145  CA        33.2250    9.4930   17.3660 C.3   669  VAL669      0.1595
    146  C         31.8560    8.9990   17.7970 C.2   669  VAL669      0.2287
    147  O         31.5670    7.7970   17.7500 O.2   669  VAL669     -0.2864
    148  CB        33.5500    8.9090   15.9910 C.3   669  VAL669      0.0276
    149  CG1       32.6120    9.4890   14.9330 C.3   669  VAL669      0.0022
    150  CG2       35.0230    9.1010   15.6350 C.3   669  VAL669      0.0022
    151  N         34.8210    2.9550   19.8510 N.3   698  HIS698     -0.1241
    152  CA        35.4460    3.3200   18.6260 C.3   698  HIS698      0.1621
    153  C         36.2980    2.1880   18.0830 C.2   698  HIS698      0.2264
    154  O         36.4780    2.0620   16.8760 O.2   698  HIS698     -0.2867
    155  CB        36.2480    4.6060   18.7870 C.3   698  HIS698      0.0745
    156  CG        36.6620    5.1850   17.4820 C.ar  698  HIS698      0.0817
    157  ND1       35.7470    5.5920   16.5370 N.ar  698  HIS698     -0.2268
    158  CD2       37.8830    5.3670   16.9350 C.ar  698  HIS698      0.1154
    159  CE1       36.3900    6.0250   15.4700 C.ar  698  HIS698      0.1986
    160  NE2       37.6870    5.9010   15.6880 N.ar  698  HIS698     -0.2212
@<TRIPOS>BOND
     1    47    48    1
     2    49    50    2
     3    49    48    1
     4    48    51    1
     5    88    86   ar
     6    88    89   ar
     7    51    52    1
     8    90    89    1
     9    82    81    2
    10    86    84   ar
    11    89    87   ar
    12    81    80    1
    13    52    53   ar
    14    52    54   ar
    15    59    60    1
    16    53    55   ar
    17    54    56   ar
    18   106   104   ar
    19   106   107   ar
    20    84    83    1
    21    84    85   ar
    22    87    85   ar
    23    94    93    2
    24    80    83    1
    25    80    79    1
    26   104   103   ar
    27   109   107   ar
    28   109   111   ar
    29    60    61    1
    30    60    63    1
    31    62    61    2
    32   107   105   ar
    33    55    57   ar
    34    76    75    2
    35    56    57   ar
    36    61    73   am
    37    57    58    1
    38    63    64    1
    39    93    92    1
    40    79    75   am
    41    75    74    1
    42   111   110   ar
    43   103   105   ar
    44   103   102    1
    45   105   108   ar
    46    91    92    1
    47    73    74    1
    48    69    71   ar
    49    69    66   ar
    50    96    95    1
    51    95    92    1
    52    95    97    1
    53    98    99    1
    54    64    66   ar
    55    64    65   ar
    56    74    77    1
    57   102    99    1
    58   135   134    1
    59    71    72   ar
    60    66    68   ar
    61   110   108   ar
    62    99   100    1
    63    77    78    1
    64    65    67   ar
    65   134   133   ar
    66   134   132   ar
    67    72    70   ar
    68    46    45   ar
    69    46    44   ar
    70    68    67   ar
    71    68    70   ar
    72   133   131   ar
    73    45    43   ar
    74   100   101    2
    75    44    42   ar
    76   132   130   ar
    77    43    41   ar
    78   131   129   ar
    79   149   148    1
    80    42    41   ar
    81   127   126    2
    82    36    37    1
    83    41    40    1
    84   159   160   ar
    85   159   157   ar
    86   130   129   ar
    87   150   148    1
    88   160   158   ar
    89   129   128    1
    90   116   117    1
    91   116   113    1
    92   148   145    1
    93    37    40    1
    94    37    38    1
    95   126   125    1
    96   119   117   ar
    97   119   121   ar
    98   117   118   ar
    99   112   113    1
   100   157   156   ar
   101   121   122   ar
   102   118   120   ar
   103   154   153    2
   104   158   156   ar
   105   113   114    1
   106   128   125    1
   107   122   120   ar
   108   122   123    1
   109    38    39    2
   110   125   124    1
   111   145   146    1
   112   145   144    1
   113   156   155    1
   114   147   146    2
   115   114   115    2
   116   153   152    1
   117   144   138   am
   118   152   155    1
   119   152   151    1
   120    11     9    1
   121    28    27   ar
   122    10     9    1
   123    29    27   ar
   124   143   141   am
   125     9     8    2
   126   138   139    2
   127   138   137    1
   128   142   141    2
   129   141   140    1
   130    27    26    1
   131    19    18   ar
   132   140   137    1
   133     8     7    1
   134   137   136    1
   135    26    25    1
   136    24    23    2
   137    18    17    1
   138    18    20   ar
   139    25    22    1
   140    17    16    1
   141     7     6    1
   142    15    14    2
   143    22    23    1
   144    22    21    1
   145    35    34    1
   146     6     5    1
   147    14    21   am
   148    14    13    1
   149    16    13    1
   150    34    31    1
   151     5     2    1
   152    13    12    1
   153    31    30    1
   154    31    32    1
   155     2     1    1
   156     2     3    1
   157     4     3    2
   158    33    32    2
