@<TRIPOS>MOLECULE
tmp/3ccfB00.pdb
 122 122 0 0 0
SMALL
GASTEIGER

@<TRIPOS>ATOM
      1  N         27.0220   43.0440   15.2590 N.3    87  ALA87      -0.1245
      2  CA        27.9140   43.0740   14.0960 C.3    87  ALA87       0.1562
      3  C         29.3940   42.7810   14.3230 C.2    87  ALA87       0.2260
      4  O         30.2530   43.3010   13.6140 O.2    87  ALA87      -0.2867
      5  CB        27.7690   44.4670   13.4240 C.3    87  ALA87       0.0290
      6  N         30.7160   37.4030   14.1120 N.3    89  HIS89      -0.1226
      7  CA        31.0110   36.5550   12.9600 C.3    89  HIS89       0.1752
      8  C         32.5090   36.5910   12.6490 C.2    89  HIS89       0.2596
      9  O         32.9740   35.8540   11.8170 O.2    89  HIS89      -0.2718
     10  CB        30.1900   36.9340   11.7150 C.3    89  HIS89       0.0759
     11  CG        30.2440   38.3810   11.3760 C.ar   89  HIS89       0.0818
     12  ND1       29.2610   39.2690   11.7510 N.ar   89  HIS89      -0.2268
     13  CD2       31.1560   39.1040   10.6810 C.ar   89  HIS89       0.1154
     14  CE1       29.5770   40.4790   11.3160 C.ar   89  HIS89       0.1986
     15  NE2       30.7320   40.4080   10.6800 N.ar   89  HIS89      -0.2212
     16  N         33.2560   37.4380   13.3420 N.am   90  TRP90      -0.1976
     17  CA        34.6970   37.5320   13.1200 C.3    90  TRP90       0.1640
     18  C         35.3930   36.6510   14.1160 C.2    90  TRP90       0.2290
     19  O         36.5830   36.4980   14.0690 O.2    90  TRP90      -0.2864
     20  CB        35.2520   38.9540   13.3020 C.3    90  TRP90       0.0576
     21  CG        34.9630   39.8950   12.1960 C.ar   90  TRP90       0.0006
     22  CD1       33.9540   40.7920   12.1600 C.ar   90  TRP90       0.0946
     23  CD2       35.6650   40.0340   10.9510 C.ar   90  TRP90       0.0152
     24  NE1       33.9550   41.4740   10.9700 N.ar   90  TRP90      -0.2442
     25  CE2       35.0110   41.0450   10.2170 C.ar   90  TRP90       0.0810
     26  CE3       36.7690   39.3940   10.3800 C.ar   90  TRP90       0.0012
     27  CZ2       35.4410   41.4590    8.9550 C.ar   90  TRP90       0.0191
     28  CZ3       37.1900   39.8030    9.1300 C.ar   90  TRP90       0.0001
     29  CH2       36.5210   40.8220    8.4280 C.ar   90  TRP90       0.0015
     30  N         26.4370   38.1090   11.6590 N.3   116  GLY116     -0.1225
     31  CA        26.2120   37.3210   10.4650 C.3   116  GLY116      0.1811
     32  C         25.8720   35.8590   10.7530 C.2   116  GLY116      0.2280
     33  O         26.5220   35.2100   11.5160 O.2   116  GLY116     -0.2866
     34  N         24.7740   33.9880    5.1970 N.3   120  ASN120     -0.1225
     35  CA        25.2060   35.3670    5.0250 C.3   120  ASN120      0.1785
     36  C         26.0870   35.4400    3.7760 C.2   120  ASN120      0.2597
     37  O         26.9560   34.6070    3.5750 O.2   120  ASN120     -0.2718
     38  CB        26.0480   35.8140    6.2110 C.3   120  ASN120      0.1169
     39  CG        26.2350   37.3340    6.2650 C.2   120  ASN120      0.2627
     40  OD1       25.3710   38.0820    5.8420 O.2   120  ASN120     -0.2716
     41  ND2       27.3360   37.7920    6.8700 N.am  120  ASN120     -0.0877
     42  N         25.8330   36.4480    2.9570 N.am  121  ILE121     -0.1980
     43  CA        26.6320   36.7310    1.7320 C.3   121  ILE121      0.1595
     44  C         26.9790   35.5280    0.8710 C.2   121  ILE121      0.2287
     45  O         28.0170   35.4640    0.1960 O.2   121  ILE121     -0.2864
     46  CB        27.8860   37.5850    1.9950 C.3   121  ILE121      0.0276
     47  CG1       28.8220   36.8980    2.9860 C.3   121  ILE121      0.0022
     48  CG2       27.4690   38.9490    2.4430 C.3   121  ILE121      0.0022
     49  CD1       30.1030   37.5770    3.2520 C.3   121  ILE121      0.0001
     50  N         35.4120   34.0650    8.6120 N.3   146  TRP146     -0.1241
     51  CA        34.1450   34.2310    9.3240 C.3   146  TRP146      0.1605
     52  C         33.4680   32.9910    9.8630 C.2   146  TRP146      0.2264
     53  O         33.6990   31.8730    9.4480 O.2   146  TRP146     -0.2867
     54  CB        33.1570   34.9610    8.4340 C.3   146  TRP146      0.0550
     55  CG        33.6760   36.2750    7.9570 C.ar  146  TRP146      0.0003
     56  CD1       34.1210   37.2950    8.7270 C.ar  146  TRP146      0.0946
     57  CD2       33.8200   36.6990    6.6030 C.ar  146  TRP146      0.0152
     58  NE1       34.5400   38.3380    7.9460 N.ar  146  TRP146     -0.2442
     59  CE2       34.3530   37.9960    6.6300 C.ar  146  TRP146      0.0810
     60  CE3       33.5560   36.1060    5.3690 C.ar  146  TRP146      0.0012
     61  CZ2       34.6260   38.6930    5.4920 C.ar  146  TRP146      0.0191
     62  CZ3       33.7950   36.8220    4.2330 C.ar  146  TRP146      0.0001
     63  CH2       34.3170   38.0990    4.2990 C.ar  146  TRP146      0.0015
     64  N         29.6320   31.9740   10.5470 N.3   148  PHE148     -0.1241
     65  CA        28.2240   32.2780   10.2420 C.3   148  PHE148      0.1605
     66  C         27.3770   31.1130   10.7150 C.2   148  PHE148      0.2264
     67  O         27.0630   30.2050    9.9430 O.2   148  PHE148     -0.2867
     68  CB        28.0090   32.5230    8.6980 C.3   148  PHE148      0.0534
     69  CG        28.8030   33.6720    8.1400 C.ar  148  PHE148     -0.0203
     70  CD1       29.0610   34.8110    8.8920 C.ar  148  PHE148     -0.0042
     71  CD2       29.2480   33.6410    6.8330 C.ar  148  PHE148     -0.0042
     72  CE1       29.7580   35.8620    8.3840 C.ar  148  PHE148     -0.0003
     73  CE2       29.9570   34.7070    6.3040 C.ar  148  PHE148     -0.0003
     74  CZ        30.2250   35.8080    7.0740 C.ar  148  PHE148     -0.0000
     75  N         33.6350   46.9020   -1.2530 N.3   186  TRP186     -0.1241
     76  CA        33.3270   45.8490   -0.3100 C.3   186  TRP186      0.1605
     77  C         34.3990   44.7720   -0.3000 C.2   186  TRP186      0.2264
     78  O         34.8620   44.3190    0.7600 O.2   186  TRP186     -0.2867
     79  CB        31.9860   45.2150   -0.6540 C.3   186  TRP186      0.0550
     80  CG        31.4600   44.3250    0.4000 C.ar  186  TRP186      0.0003
     81  CD1       30.5480   44.6530    1.3830 C.ar  186  TRP186      0.0946
     82  CD2       31.7960   42.9360    0.6140 C.ar  186  TRP186      0.0152
     83  NE1       30.3010   43.5490    2.1670 N.ar  186  TRP186     -0.2442
     84  CE2       31.0580   42.4950    1.7310 C.ar  186  TRP186      0.0810
     85  CE3       32.6390   42.0210   -0.0410 C.ar  186  TRP186      0.0012
     86  CZ2       31.1450   41.1840    2.2070 C.ar  186  TRP186      0.0191
     87  CZ3       32.7450   40.7320    0.4540 C.ar  186  TRP186      0.0001
     88  CH2       32.0070   40.3260    1.5520 C.ar  186  TRP186      0.0015
     89  N         36.5260   44.1580    2.9990 N.3   189  PHE189     -0.1241
     90  CA        36.2150   43.0490    3.8650 C.3   189  PHE189      0.1605
     91  C         36.7760   41.7180    3.4990 C.2   189  PHE189      0.2264
     92  O         36.8300   40.8050    4.3330 O.2   189  PHE189     -0.2867
     93  CB        34.7180   42.8780    3.8850 C.3   189  PHE189      0.0534
     94  CG        33.9940   44.0550    4.4250 C.ar  189  PHE189     -0.0203
     95  CD1       34.1650   44.4310    5.7590 C.ar  189  PHE189     -0.0042
     96  CD2       33.0820   44.7340    3.6390 C.ar  189  PHE189     -0.0042
     97  CE1       33.4870   45.4880    6.2710 C.ar  189  PHE189     -0.0003
     98  CE2       32.3970   45.7930    4.1450 C.ar  189  PHE189     -0.0003
     99  CZ        32.5900   46.1760    5.4630 C.ar  189  PHE189     -0.0000
    100  N         23.1000   40.1140    2.7850 N.3   227  TYR227     -0.1241
    101  CA        23.3150   39.8250    4.2160 C.3   227  TYR227      0.1605
    102  C         22.1880   39.0180    4.8630 C.2   227  TYR227      0.2264
    103  O         21.0240   39.1520    4.5160 O.2   227  TYR227     -0.2867
    104  CB        23.4640   41.1200    5.0340 C.3   227  TYR227      0.0534
    105  CG        24.7020   41.9120    4.7380 C.ar  227  TYR227     -0.0201
    106  CD1       25.9590   41.3190    4.7690 C.ar  227  TYR227     -0.0009
    107  CD2       24.6330   43.2640    4.5130 C.ar  227  TYR227     -0.0009
    108  CE1       27.1060   42.0510    4.5010 C.ar  227  TYR227      0.0417
    109  CE2       25.7730   44.0020    4.2840 C.ar  227  TYR227      0.0417
    110  CZ        26.9990   43.3910    4.2530 C.ar  227  TYR227      0.1957
    111  OH        28.1300   44.1500    3.9950 O.3   227  TYR227     -0.2866
    112  N         21.3600   37.6300    8.9970 N.3   229  ARG229     -0.1245
    113  CA        21.8270   37.7750   10.3680 C.3   229  ARG229      0.1563
    114  C         21.1180   36.8840   11.3190 C.2   229  ARG229      0.2260
    115  O         19.9510   36.5720   11.1490 O.2   229  ARG229     -0.2867
    116  CB        21.6720   39.2560   10.8140 C.3   229  ARG229      0.0307
    117  CG        22.4610   40.1860    9.8820 C.3   229  ARG229      0.0489
    118  CD        22.6880   41.5600   10.3660 C.3   229  ARG229      0.2205
    119  NE        23.2210   42.3970    9.2830 N.pl3 229  ARG229     -0.0865
    120  CZ        24.3430   42.1050    8.6580 C.cat 229  ARG229      0.5346
    121  NH1       24.9660   40.9810    8.9700 N.pl3 229  ARG229      0.1354
    122  NH2       24.8070   42.9020    7.7150 N.pl3 229  ARG229      0.1354
@<TRIPOS>BOND
     1    75    76    1
     2    79    76    1
     3    79    80    1
     4    76    77    1
     5    77    78    2
     6    85    87   ar
     7    85    82   ar
     8    45    44    2
     9    80    82   ar
    10    80    81   ar
    11    87    88   ar
    12    82    84   ar
    13    44    43    1
    14    81    83   ar
    15    88    86   ar
    16    84    83   ar
    17    84    86   ar
    18    43    46    1
    19    43    42    1
    20    46    48    1
    21    46    47    1
    22   100   101    1
    23    42    36   am
    24    47    49    1
    25    89    90    1
    26    91    90    1
    27    91    92    2
    28    37    36    2
    29    96    98   ar
    30    96    94   ar
    31    36    35    1
    32    90    93    1
    33    93    94    1
    34   111   110    1
    35    98    99   ar
    36   101   102    1
    37   101   104    1
    38    62    63   ar
    39    62    60   ar
    40   110   109   ar
    41   110   108   ar
    42   109   107   ar
    43    63    61   ar
    44    94    95   ar
    45   108   106   ar
    46   107   105   ar
    47   103   102    2
    48   105   106   ar
    49   105   104    1
    50    35    34    1
    51    35    38    1
    52    60    57   ar
    53    99    97   ar
    54    61    59   ar
    55    95    97   ar
    56    40    39    2
    57    38    39    1
    58    39    41   am
    59    73    71   ar
    60    73    74   ar
    61    57    59   ar
    62    57    55   ar
    63    59    58   ar
    64    71    69   ar
    65    74    72   ar
    66   122   120    1
    67    58    56   ar
    68    55    54    1
    69    55    56   ar
    70    69    68    1
    71    69    70   ar
    72    72    70   ar
    73    29    27   ar
    74    29    28   ar
    75    54    51    1
    76    50    51    1
    77   120   121    1
    78   120   119    2
    79    68    65    1
    80    27    25   ar
    81   112   113    1
    82    28    26   ar
    83   119   118    1
    84    51    52    1
    85    53    52    2
    86   117   118    1
    87   117   116    1
    88    67    66    2
    89    25    23   ar
    90    25    24   ar
    91    65    64    1
    92    65    66    1
    93   113   116    1
    94   113   114    1
    95    26    23   ar
    96    31    32    1
    97    31    30    1
    98    15    13   ar
    99    15    14   ar
   100    13    11   ar
   101    32    33    2
   102    23    21   ar
   103    24    22   ar
   104   115   114    2
   105    14    12   ar
   106    11    10    1
   107    11    12   ar
   108    10     7    1
   109     9     8    2
   110    22    21   ar
   111    21    20    1
   112     8     7    1
   113     8    16   am
   114     7     6    1
   115    17    20    1
   116    17    16    1
   117    17    18    1
   118     5     2    1
   119     4     3    2
   120    19    18    2
   121     2     3    1
   122     2     1    1
