@<TRIPOS>MOLECULE
tmp/3ccnA00.pdb
 172 162 0 0 0
SMALL
GASTEIGER

@<TRIPOS>ATOM
      1  N         19.2590    4.2720   55.2920 N.3    30  ILE30      -0.1231
      2  CA        19.4560    5.0770   56.5060 C.3    30  ILE30       0.1692
      3  C         18.8130    6.4650   56.4170 C.2    30  ILE30       0.2593
      4  O         19.2610    7.4220   57.0630 O.2    30  ILE30      -0.2718
      5  CB        20.9550    5.1830   56.9040 C.3    30  ILE30       0.0266
      6  CG1       21.8200    5.5830   55.6980 C.3    30  ILE30       0.0019
      7  CG2       21.4120    3.8730   57.5310 C.3    30  ILE30       0.0020
      8  CD1       23.2620    5.9390   56.0360 C.3    30  ILE30       0.0001
      9  N         17.7550    6.5590   55.6190 N.am   31  GLY31      -0.1942
     10  CA        17.0040    7.7960   55.4670 C.3    31  GLY31       0.2014
     11  C         16.2010    7.8270   54.1820 C.2    31  GLY31       0.2638
     12  O         16.6600    7.3560   53.1380 O.2    31  GLY31      -0.2714
     13  N         14.9970    8.3850   54.2710 N.am   32  ARG32      -0.1977
     14  CA        14.1250    8.5430   53.1170 C.3    32  ARG32       0.1597
     15  C         13.6680    9.9950   52.9830 C.2    32  ARG32       0.2287
     16  O         12.8580   10.4860   53.7800 O.2    32  ARG32      -0.2864
     17  CB        12.9310    7.6000   53.2150 C.3    32  ARG32       0.0334
     18  CG        12.1680    7.5280   51.8780 C.3    32  ARG32       0.0492
     19  CD        10.7910    6.9090   52.0660 C.3    32  ARG32       0.2205
     20  NE        10.8550    5.6210   52.7430 N.pl3  32  ARG32      -0.0865
     21  CZ        11.3030    4.4960   52.1650 C.cat  32  ARG32       0.5346
     22  NH1       11.7250    4.4440   50.9050 N.pl3  32  ARG32       0.1354
     23  NH2       11.4080    3.4040   52.9050 N.pl3  32  ARG32       0.1354
     24  N         18.8780    7.6050   51.1840 N.3    38  VAL38      -0.1245
     25  CA        20.2910    7.6410   51.5410 C.3    38  VAL38       0.1561
     26  C         20.7320    6.2650   52.0590 C.2    38  VAL38       0.2260
     27  O         19.9850    5.5930   52.7780 O.2    38  VAL38      -0.2867
     28  CB        20.6490    8.8570   52.4860 C.3    38  VAL38       0.0252
     29  CG1       19.4280    9.3610   53.2530 C.3    38  VAL38       0.0019
     30  CG2       21.8210    8.5500   53.4180 C.3    38  VAL38       0.0019
     31  N         27.5940    8.1700   54.3610 N.3    48  ALA48      -0.1245
     32  CA        26.2040    8.1380   53.9370 C.3    48  ALA48       0.1562
     33  C         26.1370    8.6920   52.5270 C.2    48  ALA48       0.2260
     34  O         26.6990    9.7500   52.2290 O.2    48  ALA48      -0.2867
     35  CB        25.3340    8.9460   54.8740 C.3    48  ALA48       0.0290
     36  N         23.7160    9.7900   49.4090 N.3    50  LYS50      -0.1245
     37  CA        22.3630   10.2080   49.0750 C.3    50  LYS50       0.1561
     38  C         22.0800   10.1130   47.5790 C.2    50  LYS50       0.2260
     39  O         22.7940   10.6890   46.7550 O.2    50  LYS50      -0.2867
     40  CB        22.0670   11.6180   49.5990 C.3    50  LYS50       0.0271
     41  CG        20.6520   12.0860   49.2910 C.3    50  LYS50       0.0035
     42  CD        20.2160   13.2450   50.1600 C.3    50  LYS50       0.0206
     43  CE        18.7820   13.6490   49.8370 C.3    50  LYS50       0.1093
     44  NZ        17.7970   12.5620   50.0880 N.3    50  LYS50      -0.1314
     45  N         27.3350   19.6850   59.4060 N.3    75  LEU75      -0.1245
     46  CA        27.5770   18.4670   58.6230 C.3    75  LEU75       0.1561
     47  C         28.3790   18.8130   57.3740 C.2    75  LEU75       0.2260
     48  O         27.9950   19.6950   56.6120 O.2    75  LEU75      -0.2867
     49  CB        26.2670   17.7670   58.2360 C.3    75  LEU75       0.0270
     50  CG        26.4010   16.4250   57.4980 C.3    75  LEU75       0.0019
     51  CD1       26.8100   15.3030   58.4520 C.3    75  LEU75       0.0001
     52  CD2       25.1100   16.0640   56.7560 C.3    75  LEU75       0.0001
     53  N         28.1900   11.9390   52.2140 N.3    87  LEU87      -0.1231
     54  CA        28.1750   12.6610   53.4840 C.3    87  LEU87       0.1678
     55  C         28.8310   11.8100   54.5740 C.2    87  LEU87       0.2434
     56  O         28.8910   10.5900   54.4430 O.2    87  LEU87      -0.2733
     57  CB        26.7300   12.9930   53.8810 C.3    87  LEU87       0.0284
     58  CG        25.8690   13.8010   52.9000 C.3    87  LEU87       0.0019
     59  CD1       24.3830   13.6030   53.1850 C.3    87  LEU87       0.0001
     60  CD2       26.2360   15.2830   52.8950 C.3    87  LEU87       0.0001
     61  N         29.3310   12.4500   55.6540 N.am   88  PRO88      -0.2718
     62  CA        29.7780   11.6510   56.7930 C.3    88  PRO88       0.1535
     63  C         28.6320   10.8260   57.3650 C.2    88  PRO88       0.2599
     64  O         27.4930   11.3030   57.4310 O.2    88  PRO88      -0.2715
     65  CB        30.2280   12.7040   57.8170 C.3    88  PRO88       0.0310
     66  CG        30.4920   13.9180   57.0340 C.3    88  PRO88       0.0237
     67  CD        29.5260   13.8900   55.8860 C.3    88  PRO88       0.0939
     68  N         28.9320    9.5920   57.7600 N.am   89  TYR89      -0.1960
     69  CA        27.9610    8.7590   58.4510 C.3    89  TYR89       0.1771
     70  C         27.6860    9.3220   59.8420 C.2    89  TYR89       0.2619
     71  O         28.6120    9.7410   60.5450 O.2    89  TYR89      -0.2715
     72  CB        28.4520    7.3130   58.5470 C.3    89  TYR89       0.0574
     73  CG        27.5000    6.3840   59.2690 C.ar   89  TYR89      -0.0198
     74  CD1       27.8910    5.7330   60.4360 C.ar   89  TYR89      -0.0009
     75  CD2       26.2010    6.1740   58.7980 C.ar   89  TYR89      -0.0009
     76  CE1       27.0250    4.8830   61.1080 C.ar   89  TYR89       0.0417
     77  CE2       25.3270    5.3250   59.4620 C.ar   89  TYR89       0.0417
     78  CZ        25.7490    4.6830   60.6160 C.ar   89  TYR89       0.1957
     79  OH        24.8930    3.8380   61.2840 O.3    89  TYR89      -0.2866
     80  N         26.4090    9.3450   60.2100 N.am   90  MET90      -0.1977
     81  CA        25.9710    9.8160   61.5220 C.3    90  MET90       0.1605
     82  C         25.3800    8.6470   62.3010 C.2    90  MET90       0.2287
     83  O         24.2180    8.2920   62.1170 O.2    90  MET90      -0.2864
     84  CB        24.9510   10.9550   61.3740 C.3    90  MET90       0.0413
     85  CG        25.5090   12.2450   60.7820 C.3    90  MET90       0.0598
     86  SD        26.6420   13.1340   61.8770 S.3    90  MET90      -0.1393
     87  CE        28.1930   12.9320   61.0260 C.3    90  MET90       0.0692
     88  N         22.0110    9.1980   64.1120 N.3    93  GLY93      -0.1210
     89  CA        20.9160    9.7090   63.2860 C.3    93  GLY93       0.1956
     90  C         20.5220   11.1430   63.5940 C.2    93  GLY93       0.2611
     91  O         21.3560   11.9420   64.0230 O.2    93  GLY93      -0.2717
     92  N         19.2470   11.4630   63.3840 N.am   94  ASP94      -0.1973
     93  CA        18.7610   12.8260   63.5920 C.3    94  ASP94       0.1709
     94  C         18.4680   13.1080   65.0660 C.2    94  ASP94       0.2293
     95  O         18.1290   12.2010   65.8320 O.2    94  ASP94      -0.2864
     96  CB        17.5260   13.1220   62.7410 C.3    94  ASP94       0.1436
     97  CG        16.3080   12.3600   63.2010 C.2    94  ASP94       0.3671
     98  OD1       16.2800   11.1260   63.0240 O.co2  94  ASP94      -0.2456
     99  OD2       15.3780   12.9920   63.7390 O.co2  94  ASP94      -0.2456
    100  N         14.7430   12.1390   66.7170 N.3    97  ASN97      -0.1240
    101  CA        14.6190   10.7200   67.0240 C.3    97  ASN97       0.1653
    102  C         15.4880   10.2860   68.2100 C.2    97  ASN97       0.2266
    103  O         15.0420    9.5120   69.0540 O.2    97  ASN97      -0.2867
    104  CB        14.9050    9.8620   65.7830 C.3    97  ASN97       0.1155
    105  CG        13.7190    9.7860   64.8390 C.2    97  ASN97       0.2627
    106  OD1       13.8730    9.8800   63.6210 O.2    97  ASN97      -0.2716
    107  ND2       12.5250    9.6120   65.3990 N.am   97  ASN97      -0.0877
    108  N         14.7340   17.5020   63.7930 N.3   138  ARG138     -0.1231
    109  CA        14.7260   16.4600   62.7560 C.3   138  ARG138      0.1694
    110  C         15.8380   16.6650   61.7230 C.2   138  ARG138      0.2592
    111  O         16.2120   15.7220   61.0180 O.2   138  ARG138     -0.2718
    112  CB        13.3610   16.4000   62.0490 C.3   138  ARG138      0.0321
    113  CG        13.0530   17.6120   61.1970 C.3   138  ARG138      0.0489
    114  CD        11.7430   17.5260   60.3900 C.3   138  ARG138      0.2205
    115  NE        11.5000   18.8370   59.7930 N.pl3 138  ARG138     -0.0865
    116  CZ        10.8700   19.8450   60.3940 C.cat 138  ARG138      0.5346
    117  NH1       10.7530   21.0110   59.7770 N.pl3 138  ARG138      0.1354
    118  NH2       10.3440   19.6930   61.6060 N.pl3 138  ARG138      0.1354
    119  N         16.3580   17.8930   61.6460 N.am  139  ASN139     -0.1974
    120  CA        17.3310   18.2900   60.6210 C.3   139  ASN139      0.1688
    121  C         18.7600   18.4990   61.1260 C.2   139  ASN139      0.2292
    122  O         19.6240   18.9990   60.4090 O.2   139  ASN139     -0.2864
    123  CB        16.8230   19.5140   59.8630 C.3   139  ASN139      0.1181
    124  CG        15.6880   19.1720   58.9140 C.2   139  ASN139      0.2629
    125  OD1       15.6120   18.0580   58.4020 O.2   139  ASN139     -0.2716
    126  ND2       14.8040   20.1310   58.6710 N.am  139  ASN139     -0.0877
    127  N         21.8940   16.2370   63.2050 N.3   141  MET141     -0.1245
    128  CA        22.2950   14.8410   63.3700 C.3   141  MET141      0.1570
    129  C         23.4070   14.6900   64.4120 C.2   141  MET141      0.2261
    130  O         24.1000   15.6560   64.7210 O.2   141  MET141     -0.2867
    131  CB        22.7530   14.2560   62.0330 C.3   141  MET141      0.0387
    132  CG        21.8360   14.5920   60.8640 C.3   141  MET141      0.0595
    133  SD        22.0830   13.5270   59.4540 S.3   141  MET141     -0.1393
    134  CE        21.2190   12.0590   60.0110 C.3   141  MET141      0.0692
    135  N         22.4770   20.0540   59.8320 N.3   151  ALA151     -0.1231
    136  CA        22.5020   19.3120   58.5750 C.3   151  ALA151      0.1694
    137  C         21.3980   19.8350   57.6680 C.2   151  ALA151      0.2592
    138  O         21.0040   20.9980   57.7890 O.2   151  ALA151     -0.2718
    139  CB        22.3330   17.8300   58.8470 C.3   151  ALA151      0.0304
    140  N         20.9090   18.9820   56.7670 N.am  152  ASP152     -0.1974
    141  CA        19.8040   19.3290   55.8680 C.3   152  ASP152      0.1709
    142  C         20.0190   20.6590   55.1470 C.2   152  ASP152      0.2293
    143  O         19.1470   21.5250   55.1490 O.2   152  ASP152     -0.2864
    144  CB        18.4650   19.3360   56.6260 C.3   152  ASP152      0.1436
    145  CG        17.2850   19.6910   55.7290 C.2   152  ASP152      0.3671
    146  OD1       17.1580   19.0600   54.6590 O.co2 152  ASP152     -0.2456
    147  OD2       16.5020   20.6050   56.0880 O.co2 152  ASP152     -0.2456
    148  N         22.5200   18.2330   50.7110 N.3   156  ALA156     -0.1245
    149  CA        21.8010   17.3410   51.6190 C.3   156  ALA156      0.1562
    150  C         20.3670   17.8120   51.9190 C.2   156  ALA156      0.2260
    151  O         19.5980   17.0930   52.5580 O.2   156  ALA156     -0.2867
    152  CB        22.5920   17.1450   52.9140 C.3   156  ALA156      0.0290
    153  N         12.8600   15.2980   55.1180 N.3   160  TYR160     -0.1227
    154  CA        13.1220   13.9700   55.6660 C.3   160  TYR160      0.1736
    155  C         11.9780   13.4420   56.5300 C.2   160  TYR160      0.2595
    156  O         11.9160   12.2450   56.8190 O.2   160  TYR160     -0.2718
    157  CB        14.4520   13.9580   56.4270 C.3   160  TYR160      0.0548
    158  CG        15.6610   14.1010   55.5240 C.ar  160  TYR160     -0.0200
    159  CD1       16.0930   13.0340   54.7300 C.ar  160  TYR160     -0.0009
    160  CD2       16.3620   15.3010   55.4510 C.ar  160  TYR160     -0.0009
    161  CE1       17.1970   13.1590   53.8930 C.ar  160  TYR160      0.0417
    162  CE2       17.4730   15.4370   54.6170 C.ar  160  TYR160      0.0417
    163  CZ        17.8840   14.3590   53.8460 C.ar  160  TYR160      0.1957
    164  OH        18.9780   14.4830   53.0240 O.3   160  TYR160     -0.2866
    165  N         11.0800   14.3400   56.9310 N.am  161  ASP161     -0.1974
    166  CA         9.8230   13.9700   57.5830 C.3   161  ASP161      0.1709
    167  C          8.7030   14.8290   56.9960 C.2   161  ASP161      0.2293
    168  O          8.5080   15.9740   57.4110 O.2   161  ASP161     -0.2864
    169  CB         9.9050   14.1480   59.1110 C.3   161  ASP161      0.1436
    170  CG         8.7230   13.5040   59.8550 C.2   161  ASP161      0.3671
    171  OD1        7.6560   13.2640   59.2400 O.co2 161  ASP161     -0.2456
    172  OD2        8.8620   13.2310   61.0670 O.co2 161  ASP161     -0.2456
@<TRIPOS>BOND
     1    39    38    2
     2    38    37    1
     3    37    36    1
     4    37    40    1
     5    41    40    1
     6    41    42    1
     7    43    44    1
     8    43    42    1
     9   148   149    1
    10    22    21    1
    11    24    25    1
    12    25    26    1
    13    25    28    1
    14   149   150    1
    15   149   152    1
    16    18    19    1
    17    18    17    1
    18   150   151    2
    19    26    27    2
    20    19    20    1
    21    21    20    2
    22    21    23    1
    23    53    54    1
    24    34    33    2
    25    28    29    1
    26    28    30    1
    27    33    32    1
    28    60    58    1
    29    58    59    1
    30    58    57    1
    31    15    14    1
    32    15    16    2
    33   164   163    1
    34    14    17    1
    35    14    13    1
    36    12    11    2
    37    54    57    1
    38    54    55    1
    39   163   161   ar
    40   163   162   ar
    41   161   159   ar
    42    32    31    1
    43    32    35    1
    44    11    13   am
    45    11    10    1
    46    56    55    2
    47    55    61   am
    48   162   160   ar
    49   146   145   ar
    50   159   158   ar
    51   153   154    1
    52   142   143    2
    53   142   141    1
    54     1     2    1
    55   160   158   ar
    56    10     9    1
    57   158   157    1
    58     9     3   am
    59    61    67    1
    60    61    62    1
    61   154   157    1
    62   154   155    1
    63     6     8    1
    64     6     5    1
    65   145   147   ar
    66   145   144    1
    67   141   144    1
    68   141   140    1
    69    67    66    1
    70     3     2    1
    71     3     4    2
    72     2     5    1
    73   155   156    2
    74   155   165   am
    75    48    47    2
    76    52    50    1
    77   140   137   am
    78    62    63    1
    79    62    65    1
    80     5     7    1
    81   165   166    1
    82   167   168    2
    83   167   166    1
    84    66    65    1
    85    63    64    2
    86    63    68   am
    87    47    46    1
    88    50    49    1
    89    50    51    1
    90   166   169    1
    91   137   138    2
    92   137   136    1
    93    68    69    1
    94    49    46    1
    95   125   124    2
    96    69    72    1
    97    69    70    1
    98    72    73    1
    99   136   139    1
   100   136   135    1
   101    46    45    1
   102   126   124   am
   103    75    73   ar
   104    75    77   ar
   105   124   123    1
   106   169   170    1
   107   171   170   ar
   108    73    74   ar
   109   133   134    1
   110   133   132    1
   111    77    78   ar
   112   117   116    1
   113   115   114    1
   114   115   116    2
   115    70    80   am
   116    70    71    2
   117   170   172   ar
   118   123   120    1
   119    80    81    1
   120   114   113    1
   121   116   118    1
   122   122   121    2
   123    74    76   ar
   124    78    76   ar
   125    78    79    1
   126   120   121    1
   127   120   119    1
   128    85    84    1
   129    85    86    1
   130   132   131    1
   131   111   110    2
   132    87    86    1
   133   113   112    1
   134    84    81    1
   135    81    82    1
   136   119   110   am
   137   110   109    1
   138   131   128    1
   139   112   109    1
   140    83    82    2
   141    96    97    1
   142    96    93    1
   143   109   108    1
   144    98    97   ar
   145    97    99   ar
   146   127   128    1
   147    89    90    1
   148    89    88    1
   149   128   129    1
   150    92    93    1
   151    92    90   am
   152    93    94    1
   153    90    91    2
   154   106   105    2
   155   129   130    2
   156   105   107   am
   157   105   104    1
   158    94    95    2
   159   104   101    1
   160   100   101    1
   161   101   102    1
   162   102   103    2
