@<TRIPOS>MOLECULE
tmp/3cczD01.pdb
 95 87 0 0 0
SMALL
GASTEIGER

@<TRIPOS>ATOM
      1  N         51.0230  -13.9780   43.4910 N.3    62  GLU62      -0.1245
      2  CA        51.1630  -14.9800   44.5540 C.3    62  GLU62       0.1567
      3  C         51.7270  -14.3510   45.8250 C.2    62  GLU62       0.2260
      4  O         52.2710  -13.2470   45.7920 O.2    62  GLU62      -0.2867
      5  CB        52.0840  -16.1210   44.1150 C.3    62  GLU62       0.0388
      6  CG        51.6370  -16.8460   42.8570 C.3    62  GLU62       0.1160
      7  CD        51.9380  -16.0640   41.5950 C.2    62  GLU62       0.3649
      8  OE1       53.0820  -15.5900   41.4400 O.co2  62  GLU62      -0.2457
      9  OE2       51.0220  -15.9100   40.7620 O.co2  62  GLU62      -0.2457
     10  N         58.0720  -14.4420   19.6450 N.3   124  ARG124     -0.1245
     11  CA        58.9220  -15.2100   20.5460 C.3   124  ARG124      0.1563
     12  C         60.1390  -15.6710   19.7520 C.2   124  ARG124      0.2260
     13  O         60.0140  -16.0840   18.6000 O.2   124  ARG124     -0.2867
     14  CB        58.1590  -16.4030   21.1350 C.3   124  ARG124      0.0307
     15  CG        58.9380  -17.2470   22.1510 C.3   124  ARG124      0.0489
     16  CD        59.5070  -16.4700   23.3370 C.3   124  ARG124      0.2205
     17  NE        58.5520  -16.3090   24.4290 N.pl3 124  ARG124     -0.0865
     18  CZ        58.7150  -15.4850   25.4620 C.cat 124  ARG124      0.5346
     19  NH1       57.7830  -15.4200   26.4050 N.pl3 124  ARG124      0.1354
     20  NH2       59.7970  -14.7180   25.5580 N.pl3 124  ARG124      0.1354
     21  N         51.7370  -12.9880   24.5600 N.3   191  MET191     -0.1230
     22  CA        52.9860  -13.6650   24.9230 C.3   191  MET191      0.1702
     23  C         52.7360  -15.1420   25.2410 C.2   191  MET191      0.2592
     24  O         53.5420  -15.9980   24.8800 O.2   191  MET191     -0.2718
     25  CB        53.6810  -12.9720   26.1050 C.3   191  MET191      0.0401
     26  CG        54.7550  -11.9640   25.6950 C.3   191  MET191      0.0596
     27  SD        56.4270  -12.6560   25.6310 S.3   191  MET191     -0.1393
     28  CE        56.3960  -13.4650   24.0280 C.3   191  MET191      0.0692
     29  N         51.6190  -15.4310   25.9030 N.am  192  ASN192     -0.1974
     30  CA        51.2470  -16.8090   26.2350 C.3   192  ASN192      0.1688
     31  C         50.8090  -17.6040   25.0030 C.2   192  ASN192      0.2292
     32  O         51.1300  -18.7840   24.8760 O.2   192  ASN192     -0.2864
     33  CB        50.1330  -16.8370   27.2930 C.3   192  ASN192      0.1181
     34  CG        50.6250  -17.3090   28.6470 C.2   192  ASN192      0.2629
     35  OD1       50.3010  -18.4130   29.0880 O.2   192  ASN192     -0.2716
     36  ND2       51.4130  -16.4740   29.3140 N.am  192  ASN192     -0.0877
     37  N         53.8590  -18.2790   22.7100 N.3   195  SER195     -0.1217
     38  CA        54.7570  -19.2380   23.3530 C.3   195  SER195      0.1889
     39  C         54.2570  -20.6690   23.1710 C.2   195  SER195      0.2288
     40  O         55.0540  -21.5960   23.0330 O.2   195  SER195     -0.2866
     41  CB        54.8950  -18.9300   24.8460 C.3   195  SER195      0.2089
     42  OG        55.5010  -17.6670   25.0510 O.3   195  SER195     -0.2183
     43  N         63.1580  -21.7320   25.0260 N.3   217  VAL217     -0.1231
     44  CA        61.9980  -21.2370   24.2830 C.3   217  VAL217      0.1692
     45  C         62.0910  -19.7250   24.0440 C.2   217  VAL217      0.2592
     46  O         61.5000  -19.2040   23.0980 O.2   217  VAL217     -0.2718
     47  CB        60.6590  -21.5990   24.9910 C.3   217  VAL217      0.0266
     48  CG1       60.4760  -20.8020   26.2800 C.3   217  VAL217      0.0020
     49  CG2       59.4780  -21.3870   24.0500 C.3   217  VAL217      0.0020
     50  N         62.8230  -19.0310   24.9140 N.am  218  SER218     -0.1952
     51  CA        63.2460  -17.6590   24.6550 C.3   218  SER218      0.1924
     52  C         64.7660  -17.5760   24.7000 C.2   218  SER218      0.2314
     53  O         65.3720  -17.7600   25.7550 O.2   218  SER218     -0.2863
     54  CB        62.6630  -16.6980   25.6860 C.3   218  SER218      0.2116
     55  OG        63.2550  -15.4150   25.5570 O.3   218  SER218     -0.2180
     56  N         66.2850  -14.7240   23.9100 N.3   220  ASN220     -0.1240
     57  CA        66.4530  -13.2650   23.8760 C.3   220  ASN220      0.1653
     58  C         66.4170  -12.6480   22.4710 C.2   220  ASN220      0.2266
     59  O         66.9080  -11.5350   22.2620 O.2   220  ASN220     -0.2867
     60  CB        67.7350  -12.8460   24.6190 C.3   220  ASN220      0.1155
     61  CG        67.5290  -12.7170   26.1170 C.2   220  ASN220      0.2627
     62  OD1       66.4610  -13.0290   26.6440 O.2   220  ASN220     -0.2716
     63  ND2       68.5580  -12.2480   26.8100 N.am  220  ASN220     -0.0877
     64  N         63.4470  -12.2660   20.8860 N.3   222  CYS222     -0.1235
     65  CA        62.0480  -11.8610   20.7120 C.3   222  CYS222      0.1677
     66  C         61.9050  -10.3890   20.2980 C.2   222  CYS222      0.2270
     67  O         61.2660  -10.1280   19.2830 O.2   222  CYS222     -0.2867
     68  CB        61.1870  -12.1820   21.9460 C.3   222  CYS222      0.0956
     69  SG        61.7010  -13.6380   22.8830 S.3   222  CYS222     -0.0801
     70  N         61.8990   -9.6950   24.4940 N.3   224  ASP224     -0.1225
     71  CA        60.9320   -9.3100   25.5200 C.3   224  ASP224      0.1805
     72  C         61.6030   -8.6650   26.7320 C.2   224  ASP224      0.2598
     73  O         62.4690   -9.2700   27.3640 O.2   224  ASP224     -0.2718
     74  CB        60.1350  -10.5380   25.9730 C.3   224  ASP224      0.1424
     75  CG        58.9420  -10.1760   26.8420 C.2   224  ASP224      0.3668
     76  OD1       58.1960   -9.2410   26.4900 O.co2 224  ASP224     -0.2456
     77  OD2       58.6690  -10.7760   27.8990 O.co2 224  ASP224     -0.2456
     78  N         61.1950   -7.4330   27.0330 N.am  225  LYS225     -0.1966
     79  CA        61.5660   -6.7210   28.2630 C.3   225  LYS225      0.1728
     80  C         63.0650   -6.4070   28.4150 C.2   225  LYS225      0.2616
     81  O         63.5540   -6.1890   29.5260 O.2   225  LYS225     -0.2715
     82  CB        61.0230   -7.4690   29.4890 C.3   225  LYS225      0.0311
     83  CG        59.5040   -7.5490   29.5110 C.3   225  LYS225      0.0038
     84  CD        58.9990   -8.3990   30.6620 C.3   225  LYS225      0.0206
     85  CE        57.4880   -8.5400   30.6160 C.3   225  LYS225      0.1093
     86  NZ        56.9810   -9.4620   31.6650 N.3   225  LYS225     -0.1314
     87  N         63.7770   -6.3800   27.2910 N.am  226  LYS226     -0.1977
     88  CA        65.1460   -5.8670   27.2270 C.3   226  LYS226      0.1596
     89  C         65.2570   -4.9440   26.0170 C.2   226  LYS226      0.2287
     90  O         64.5660   -5.1580   25.0170 O.2   226  LYS226     -0.2864
     91  CB        66.1570   -7.0030   27.0660 C.3   226  LYS226      0.0298
     92  CG        66.4650   -7.7950   28.3340 C.3   226  LYS226      0.0038
     93  CD        65.4900   -8.9450   28.5740 C.3   226  LYS226      0.0206
     94  CE        65.5660  -10.0230   27.4980 C.3   226  LYS226      0.1093
     95  NZ        64.6940  -11.1870   27.8120 N.3   226  LYS226     -0.1314
@<TRIPOS>BOND
     1    13    12    2
     2    67    66    2
     3    10    11    1
     4    12    11    1
     5    66    65    1
     6    11    14    1
     7    65    64    1
     8    65    68    1
     9    14    15    1
    10    68    69    1
    11    15    16    1
    12    59    58    2
    13    58    57    1
    14    37    38    1
    15    40    39    2
    16    46    45    2
    17    39    38    1
    18    16    17    1
    19    38    41    1
    20    57    56    1
    21    57    60    1
    22    28    27    1
    23    45    44    1
    24    45    50   am
    25    49    47    1
    26    44    47    1
    27    44    43    1
    28    17    18    2
    29    70    71    1
    30    21    22    1
    31    60    61    1
    32    51    52    1
    33    51    50    1
    34    51    54    1
    35    52    53    2
    36    41    42    1
    37    32    31    2
    38    24    23    2
    39    22    23    1
    40    22    25    1
    41    47    48    1
    42    31    30    1
    43    90    89    2
    44    23    29   am
    45    18    20    1
    46    18    19    1
    47    71    74    1
    48    71    72    1
    49    55    54    1
    50    27    26    1
    51    26    25    1
    52    29    30    1
    53    74    75    1
    54    89    88    1
    55    61    62    2
    56    61    63   am
    57    30    33    1
    58    76    75   ar
    59    72    78   am
    60    72    73    2
    61    75    77   ar
    62    78    79    1
    63    91    88    1
    64    91    92    1
    65    88    87    1
    66    87    80   am
    67    33    34    1
    68    94    95    1
    69    94    93    1
    70    79    80    1
    71    79    82    1
    72    92    93    1
    73    80    81    2
    74    34    35    2
    75    34    36   am
    76    82    83    1
    77    83    84    1
    78    85    84    1
    79    85    86    1
    80     9     7   ar
    81     8     7   ar
    82     7     6    1
    83     6     5    1
    84     1     2    1
    85     5     2    1
    86     2     3    1
    87     4     3    2
