@<TRIPOS>MOLECULE
tmp/3cczD00.pdb
 102 95 0 0 0
SMALL
GASTEIGER

@<TRIPOS>ATOM
      1  N         54.1810   10.9440   39.6700 N.3    93  GLU93      -0.1231
      2  CA        55.0490   12.0370   39.2450 C.3    93  GLU93       0.1699
      3  C         54.2300   13.3130   39.1250 C.2    93  GLU93       0.2593
      4  O         53.2860   13.3790   38.3340 O.2    93  GLU93      -0.2718
      5  CB        55.7190   11.7230   37.9040 C.3    93  GLU93       0.0402
      6  CG        56.4470   12.9170   37.2990 C.3    93  GLU93       0.1161
      7  CD        57.5020   12.5340   36.2810 C.2    93  GLU93       0.3649
      8  OE1       57.3300   11.5130   35.5820 O.co2  93  GLU93      -0.2457
      9  OE2       58.5030   13.2720   36.1770 O.co2  93  GLU93      -0.2457
     10  N         54.6060   14.3260   39.9010 N.am   94  GLY94      -0.1942
     11  CA        53.9280   15.6060   39.8800 C.3    94  GLY94       0.2014
     12  C         54.0340   16.2730   38.5230 C.2    94  GLY94       0.2639
     13  O         55.0890   16.2420   37.8910 O.2    94  GLY94      -0.2714
     14  N         52.9190   16.8520   38.0820 N.am   95  CYS95      -0.1953
     15  CA        52.8120   17.6100   36.8310 C.3    95  CYS95       0.1843
     16  C         52.7270   16.7780   35.5440 C.2    95  CYS95       0.2625
     17  O         52.5520   17.3480   34.4720 O.2    95  CYS95      -0.2714
     18  CB        53.9390   18.6470   36.7160 C.3    95  CYS95       0.0997
     19  SG        53.9240   19.8760   38.0390 S.3    95  CYS95      -0.0797
     20  N         52.8290   15.4530   35.6350 N.am   96  LEU96      -0.1977
     21  CA        52.8080   14.6070   34.4380 C.3    96  LEU96       0.1596
     22  C         51.4370   14.6130   33.7600 C.2    96  LEU96       0.2287
     23  O         51.3460   14.7830   32.5470 O.2    96  LEU96      -0.2864
     24  CB        53.2270   13.1680   34.7650 C.3    96  LEU96       0.0297
     25  CG        53.1610   12.1460   33.6210 C.3    96  LEU96       0.0022
     26  CD1       53.9270   12.6240   32.3890 C.3    96  LEU96       0.0001
     27  CD2       53.6890   10.7980   34.0820 C.3    96  LEU96       0.0001
     28  N         48.9500   16.8230   34.2150 N.3    98  ALA98      -0.1231
     29  CA        48.6160   18.1930   33.8210 C.3    98  ALA98       0.1694
     30  C         49.3540   18.6370   32.5560 C.2    98  ALA98       0.2592
     31  O         48.7980   19.3640   31.7350 O.2    98  ALA98      -0.2718
     32  CB        48.9030   19.1560   34.9640 C.3    98  ALA98       0.0304
     33  N         50.6030   18.1980   32.4030 N.am   99  SER99      -0.1952
     34  CA        51.4090   18.5410   31.2330 C.3    99  SER99       0.1924
     35  C         50.9060   17.7980   30.0010 C.2    99  SER99       0.2314
     36  O         50.8260   18.3690   28.9180 O.2    99  SER99      -0.2863
     37  CB        52.8860   18.2140   31.4740 C.3    99  SER99       0.2116
     38  OG        53.6690   18.5080   30.3290 O.3    99  SER99      -0.2180
     39  N         47.8370   19.4720   28.7820 N.3   102  ARG102     -0.1245
     40  CA        48.1240   20.6860   28.0190 C.3   102  ARG102      0.1563
     41  C         48.4600   20.3530   26.5700 C.2   102  ARG102      0.2260
     42  O         48.1040   21.0990   25.6600 O.2   102  ARG102     -0.2867
     43  CB        49.2840   21.4640   28.6510 C.3   102  ARG102      0.0307
     44  CG        49.5360   22.8270   28.0160 C.3   102  ARG102      0.0489
     45  CD        50.5990   23.6590   28.7130 C.3   102  ARG102      0.2205
     46  NE        51.9480   23.1500   28.4620 N.pl3 102  ARG102     -0.0865
     47  CZ        53.0680   23.8650   28.5650 C.cat 102  ARG102      0.5346
     48  NH1       54.2350   23.2840   28.3160 N.pl3 102  ARG102      0.1354
     49  NH2       53.0400   25.1500   28.9090 N.pl3 102  ARG102      0.1354
     50  N         67.9580   17.7970   20.5640 N.3   269  LYS269     -0.1245
     51  CA        67.7390   16.9700   21.7500 C.3   269  LYS269      0.1561
     52  C         67.3640   15.5580   21.3170 C.2   269  LYS269      0.2260
     53  O         68.0960   14.6090   21.5790 O.2   269  LYS269     -0.2867
     54  CB        66.6340   17.5610   22.6340 C.3   269  LYS269      0.0271
     55  CG        66.1670   16.6640   23.7770 C.3   269  LYS269      0.0035
     56  CD        65.0390   17.3180   24.5570 C.3   269  LYS269      0.0206
     57  CE        64.3860   16.3410   25.5250 C.3   269  LYS269      0.1093
     58  NZ        65.2510   16.0640   26.7010 N.3   269  LYS269     -0.1314
     59  N         61.4220   12.6250   23.9730 N.3   285  ALA285     -0.1231
     60  CA        61.5450   13.3310   25.2510 C.3   285  ALA285      0.1694
     61  C         61.2600   12.4150   26.4310 C.2   285  ALA285      0.2592
     62  O         62.1110   12.2220   27.2980 O.2   285  ALA285     -0.2718
     63  CB        60.5910   14.5210   25.2980 C.3   285  ALA285      0.0304
     64  N         60.0460   11.8710   26.4650 N.am  286  HIS286     -0.1976
     65  CA        59.5860   11.0590   27.5900 C.3   286  HIS286      0.1656
     66  C         58.3760   10.1950   27.2410 C.2   286  HIS286      0.2291
     67  O         57.4230   10.1130   28.0120 O.2   286  HIS286     -0.2864
     68  CB        59.2760   11.9380   28.8160 C.3   286  HIS286      0.0771
     69  CG        58.1600   12.9210   28.6100 C.ar  286  HIS286      0.0820
     70  ND1       57.5700   13.5990   29.6550 N.ar  286  HIS286     -0.2267
     71  CD2       57.5330   13.3460   27.4870 C.ar  286  HIS286      0.1154
     72  CE1       56.6320   14.4000   29.1840 C.ar  286  HIS286      0.1986
     73  NE2       56.5860   14.2630   27.8720 N.ar  286  HIS286     -0.2212
     74  N         57.2330    7.9520   30.0590 N.3   289  ASN289     -0.1240
     75  CA        56.3330    8.4970   31.0810 C.3   289  ASN289      0.1653
     76  C         54.8700    8.2030   30.7730 C.2   289  ASN289      0.2266
     77  O         54.1250    7.7540   31.6450 O.2   289  ASN289     -0.2867
     78  CB        56.5100   10.0150   31.2330 C.3   289  ASN289      0.1155
     79  CG        57.5440   10.3910   32.2760 C.2   289  ASN289      0.2627
     80  OD1       57.8870    9.5970   33.1520 O.2   289  ASN289     -0.2716
     81  ND2       58.0420   11.6200   32.1910 N.am  289  ASN289     -0.0877
     82  N         56.1620   18.7850   27.0070 N.3   387  LEU387     -0.1245
     83  CA        57.4910   18.7850   27.6240 C.3   387  LEU387      0.1561
     84  C         58.5080   19.5250   26.7610 C.2   387  LEU387      0.2260
     85  O         59.3360   20.2630   27.2810 O.2   387  LEU387     -0.2867
     86  CB        57.9890   17.3600   27.9030 C.3   387  LEU387      0.0270
     87  CG        59.4310   17.2550   28.4280 C.3   387  LEU387      0.0019
     88  CD1       59.6230   18.0740   29.6970 C.3   387  LEU387      0.0001
     89  CD2       59.8190   15.8100   28.6760 C.3   387  LEU387      0.0001
     90  N         58.1210   23.1460   27.2240 N.3   390  ALA390     -0.1231
     91  CA        58.6570   23.5710   28.5150 C.3   390  ALA390      0.1694
     92  C         60.1750   23.7420   28.4670 C.2   390  ALA390      0.2591
     93  O         60.7190   24.6630   29.0740 O.2   390  ALA390     -0.2718
     94  CB        58.2750   22.5710   29.5970 C.3   390  ALA390      0.0304
     95  N         60.8510   22.8540   27.7420 N.am  391  LEU391     -0.1980
     96  CA        62.3040   22.9080   27.6060 C.3   391  LEU391      0.1596
     97  C         62.7300   24.0530   26.6870 C.2   391  LEU391      0.2287
     98  O         63.7570   24.6910   26.9170 O.2   391  LEU391     -0.2864
     99  CB        62.8400   21.5790   27.0660 C.3   391  LEU391      0.0297
    100  CG        62.6120   20.3620   27.9670 C.3   391  LEU391      0.0022
    101  CD1       62.7300   19.0730   27.1680 C.3   391  LEU391      0.0001
    102  CD2       63.5830   20.3610   29.1380 C.3   391  LEU391      0.0001
@<TRIPOS>BOND
     1    50    51    1
     2    52    53    2
     3    52    51    1
     4    51    54    1
     5    54    55    1
     6    55    56    1
     7    59    60    1
     8    56    57    1
     9    60    63    1
    10    60    61    1
    11    57    58    1
    12    42    41    2
    13    61    64   am
    14    61    62    2
    15    64    65    1
    16    41    40    1
    17    97    98    2
    18    97    96    1
    19    84    85    2
    20    84    83    1
    21    82    83    1
    22    99    96    1
    23    99   100    1
    24   101   100    1
    25    90    91    1
    26    66    65    1
    27    66    67    2
    28    71    73   ar
    29    71    69   ar
    30    65    68    1
    31    96    95    1
    32    83    86    1
    33    95    92   am
    34    73    72   ar
    35    86    87    1
    36   100   102    1
    37    44    43    1
    38    44    45    1
    39    40    43    1
    40    40    39    1
    41    48    47    1
    42    87    89    1
    43    87    88    1
    44    46    47    2
    45    46    45    1
    46    92    91    1
    47    92    93    2
    48    91    94    1
    49    47    49    1
    50    69    68    1
    51    69    70   ar
    52    36    35    2
    53    72    70   ar
    54    35    34    1
    55    74    75    1
    56    38    37    1
    57    76    75    1
    58    76    77    2
    59    75    78    1
    60    78    79    1
    61    34    37    1
    62    34    33    1
    63    31    30    2
    64    81    79   am
    65    79    80    2
    66    26    25    1
    67    33    30   am
    68    23    22    2
    69    30    29    1
    70    25    27    1
    71    25    24    1
    72    22    21    1
    73    29    28    1
    74    29    32    1
    75    21    24    1
    76    21    20    1
    77    17    16    2
    78    16    20   am
    79    16    15    1
    80     8     7   ar
    81     9     7   ar
    82     7     6    1
    83    18    15    1
    84    18    19    1
    85    15    14    1
    86     6     5    1
    87    13    12    2
    88     5     2    1
    89    14    12   am
    90     4     3    2
    91    12    11    1
    92     3     2    1
    93     3    10   am
    94     2     1    1
    95    11    10    1
