@<TRIPOS>MOLECULE
tmp/3cd0C01.pdb
 102 95 0 0 0
SMALL
GASTEIGER

@<TRIPOS>ATOM
      1  N        -24.2320   35.3120    3.9750 N.3   113  GLU113     -0.1231
      2  CA       -25.2740   34.4140    4.4500 C.3   113  GLU113      0.1699
      3  C        -26.5070   35.2230    4.8330 C.2   113  GLU113      0.2593
      4  O        -26.4620   36.0470    5.7540 O.2   113  GLU113     -0.2718
      5  CB       -24.7870   33.6120    5.6520 C.3   113  GLU113      0.0402
      6  CG       -25.8290   32.6640    6.2170 C.3   113  GLU113      0.1161
      7  CD       -25.2590   31.6850    7.2290 C.2   113  GLU113      0.3649
      8  OE1      -24.0910   31.8500    7.6480 O.co2 113  GLU113     -0.2457
      9  OE2      -25.9870   30.7430    7.6020 O.co2 113  GLU113     -0.2457
     10  N        -27.6080   34.9810    4.1270 N.am  114  GLY114     -0.1942
     11  CA       -28.8610   35.6470    4.4140 C.3   114  GLY114      0.2014
     12  C        -29.3140   35.3370    5.8240 C.2   114  GLY114      0.2639
     13  O        -29.0430   34.2460    6.3410 O.2   114  GLY114     -0.2714
     14  N        -29.9880   36.3060    6.4360 N.am  115  CYS115     -0.1953
     15  CA       -30.5140   36.2210    7.8030 C.3   115  CYS115      0.1843
     16  C        -29.5010   36.1940    8.9430 C.2   115  CYS115      0.2625
     17  O        -29.9080   36.1950   10.0980 O.2   115  CYS115     -0.2714
     18  CB       -31.4390   35.0100    7.9660 C.3   115  CYS115      0.0997
     19  SG       -32.8070   34.9680    6.7990 S.3   115  CYS115     -0.0797
     20  N        -28.2020   36.1680    8.6530 N.am  116  LEU116     -0.1977
     21  CA       -27.2040   36.0780    9.7190 C.3   116  LEU116      0.1596
     22  C        -27.1470   37.3800   10.5120 C.2   116  LEU116      0.2287
     23  O        -27.1870   37.3620   11.7370 O.2   116  LEU116     -0.2864
     24  CB       -25.8260   35.7310    9.1590 C.3   116  LEU116      0.0297
     25  CG       -24.6530   35.7840   10.1430 C.3   116  LEU116      0.0022
     26  CD1      -24.8920   34.8600   11.3190 C.3   116  LEU116      0.0001
     27  CD2      -23.3520   35.4230    9.4310 C.3   116  LEU116      0.0001
     28  N        -29.4630   39.8400   10.5760 N.3   118  ALA118     -0.1231
     29  CA       -30.7690   40.0910   11.1870 C.3   118  ALA118      0.1694
     30  C        -30.9740   39.2260   12.4160 C.2   118  ALA118      0.2592
     31  O        -31.4940   39.6920   13.4290 O.2   118  ALA118     -0.2718
     32  CB       -31.9020   39.8450   10.1810 C.3   118  ALA118      0.0304
     33  N        -30.5750   37.9630   12.3320 N.am  119  SER119     -0.1952
     34  CA       -30.6860   37.0780   13.4820 C.3   119  SER119      0.1924
     35  C        -29.8070   37.5480   14.6290 C.2   119  SER119      0.2314
     36  O        -30.2140   37.4830   15.7790 O.2   119  SER119     -0.2863
     37  CB       -30.3330   35.6370   13.1260 C.3   119  SER119      0.2116
     38  OG       -30.7450   34.7810   14.1730 O.3   119  SER119     -0.2180
     39  N        -31.4840   40.4180   16.3260 N.3   122  ARG122     -0.1245
     40  CA       -32.5800   40.0410   17.2100 C.3   122  ARG122      0.1563
     41  C        -32.0560   39.5800   18.5760 C.2   122  ARG122      0.2260
     42  O        -32.7020   39.8030   19.5990 O.2   122  ARG122     -0.2867
     43  CB       -33.4460   38.9580   16.5690 C.3   122  ARG122      0.0307
     44  CG       -34.6570   38.5620   17.4130 C.3   122  ARG122      0.0489
     45  CD       -35.4900   37.4440   16.8240 C.3   122  ARG122      0.2205
     46  NE       -34.8350   36.1420   16.9310 N.pl3 122  ARG122     -0.0865
     47  CZ       -35.4620   34.9690   16.8220 C.cat 122  ARG122      0.5346
     48  NH1      -36.7740   34.9080   16.6080 N.pl3 122  ARG122      0.1354
     49  NH2      -34.7720   33.8440   16.9290 N.pl3 122  ARG122      0.1354
     50  N        -27.9260   19.8720   22.3970 N.3   289  LYS289     -0.1245
     51  CA       -27.2830   20.2320   21.1420 C.3   289  LYS289      0.1561
     52  C        -25.8280   20.5970   21.4250 C.2   289  LYS289      0.2260
     53  O        -24.9120   19.8950   21.0010 O.2   289  LYS289     -0.2867
     54  CB       -28.0240   21.3960   20.4730 C.3   289  LYS289      0.0271
     55  CG       -27.3790   21.9470   19.1990 C.3   289  LYS289      0.0035
     56  CD       -28.0620   23.2280   18.7740 C.3   289  LYS289      0.0206
     57  CE       -27.2780   23.9580   17.7000 C.3   289  LYS289      0.1093
     58  NZ       -27.0070   23.0990   16.5150 N.3   289  LYS289     -0.1314
     59  N        -23.5820   26.7900   19.0300 N.3   305  ALA305     -0.1231
     60  CA       -24.4200   26.7200   17.8300 C.3   305  ALA305      0.1694
     61  C        -23.6950   27.2050   16.5750 C.2   305  ALA305      0.2592
     62  O        -23.5430   26.4480   15.6160 O.2   305  ALA305     -0.2718
     63  CB       -25.6930   27.5090   18.0230 C.3   305  ALA305      0.0304
     64  N        -23.2550   28.4620   16.5720 N.am  306  HIS306     -0.1976
     65  CA       -22.6640   29.0530   15.3730 C.3   306  HIS306      0.1656
     66  C        -21.7530   30.2530   15.6280 C.2   306  HIS306      0.2291
     67  O        -21.7430   31.2100   14.8590 O.2   306  HIS306     -0.2864
     68  CB       -23.7550   29.3800   14.3490 C.3   306  HIS306      0.0771
     69  CG       -24.6270   30.5420   14.7130 C.ar  306  HIS306      0.0820
     70  ND1      -24.8980   31.5650   13.8280 N.ar  306  HIS306     -0.2267
     71  CD2      -25.3130   30.8320   15.8450 C.ar  306  HIS306      0.1154
     72  CE1      -25.7040   32.4390   14.4050 C.ar  306  HIS306      0.1986
     73  NE2      -25.9710   32.0190   15.6290 N.ar  306  HIS306     -0.2212
     74  N        -19.8650   31.8000   12.6250 N.3   309  ASN309     -0.1240
     75  CA       -20.5450   32.7980   11.8030 C.3   309  ASN309      0.1653
     76  C        -20.2410   34.2330   12.2150 C.2   309  ASN309      0.2266
     77  O        -19.9200   35.0640   11.3650 O.2   309  ASN309     -0.2867
     78  CB       -22.0580   32.5860   11.8420 C.3   309  ASN309      0.1155
     79  CG       -22.5200   31.5160   10.8840 C.2   309  ASN309      0.2627
     80  OD1      -21.8180   31.1800    9.9240 O.2   309  ASN309     -0.2716
     81  ND2      -23.7140   30.9760   11.1320 N.am  309  ASN309     -0.0877
     82  N        -30.2870   32.1340   17.2420 N.3   407  LEU407     -0.1245
     83  CA       -30.3230   30.8410   16.5590 C.3   407  LEU407      0.1561
     84  C        -30.9040   29.7330   17.4360 C.2   407  LEU407      0.2260
     85  O        -31.6850   28.9240   16.9610 O.2   407  LEU407     -0.2867
     86  CB       -28.9240   30.4410   16.0700 C.3   407  LEU407      0.0270
     87  CG       -28.8640   29.0810   15.3720 C.3   407  LEU407      0.0019
     88  CD1      -29.8890   28.9980   14.2390 C.3   407  LEU407      0.0001
     89  CD2      -27.4580   28.8070   14.8560 C.3   407  LEU407      0.0001
     90  N        -34.6140   29.9930   17.5970 N.3   410  ALA410     -0.1231
     91  CA       -35.2420   29.5480   16.3500 C.3   410  ALA410      0.1694
     92  C        -35.2570   28.0230   16.2100 C.2   410  ALA410      0.2591
     93  O        -36.1550   27.4710   15.5840 O.2   410  ALA410     -0.2718
     94  CB       -34.5470   30.1750   15.1540 C.3   410  ALA410      0.0304
     95  N        -34.2690   27.3480   16.7890 N.am  411  LEU411     -0.1980
     96  CA       -34.2100   25.8860   16.7510 C.3   411  LEU411      0.1596
     97  C        -35.1850   25.2990   17.7530 C.2   411  LEU411      0.2287
     98  O        -35.8080   24.2660   17.4860 O.2   411  LEU411     -0.2864
     99  CB       -32.7960   25.3730   17.0460 C.3   411  LEU411      0.0297
    100  CG       -31.7540   25.7250   15.9830 C.3   411  LEU411      0.0022
    101  CD1      -30.3550   25.5190   16.5330 C.3   411  LEU411      0.0001
    102  CD2      -31.9550   24.9270   14.7010 C.3   411  LEU411      0.0001
@<TRIPOS>BOND
     1     1     2    1
     2    10    11    1
     3    10     3   am
     4    11    12    1
     5     2     3    1
     6     2     5    1
     7     3     4    2
     8     5     6    1
     9    12    13    2
    10    12    14   am
    11     6     7    1
    12    14    15    1
    13    19    18    1
    14     7     9   ar
    15     7     8   ar
    16    15    18    1
    17    15    16    1
    18    20    16   am
    19    20    21    1
    20    16    17    2
    21    24    21    1
    22    24    25    1
    23    27    25    1
    24    21    22    1
    25    80    79    2
    26    25    26    1
    27    32    29    1
    28    22    23    2
    29    28    29    1
    30    79    81   am
    31    79    78    1
    32    29    30    1
    33    77    76    2
    34    75    78    1
    35    75    76    1
    36    75    74    1
    37    33    30   am
    38    33    34    1
    39    30    31    2
    40    37    34    1
    41    37    38    1
    42    34    35    1
    43    70    72   ar
    44    70    69   ar
    45    88    87    1
    46    68    69    1
    47    68    65    1
    48    72    73   ar
    49    35    36    2
    50   102   100    1
    51    69    71   ar
    52    89    87    1
    53    67    66    2
    54    94    91    1
    55    87    86    1
    56    65    66    1
    57    65    64    1
    58    93    92    2
    59    62    61    2
    60    73    71   ar
    61   100   101    1
    62   100    99    1
    63    86    83    1
    64    92    91    1
    65    92    95   am
    66    39    40    1
    67    91    90    1
    68    58    57    1
    69    83    82    1
    70    83    84    1
    71    43    40    1
    72    43    44    1
    73    64    61   am
    74    61    60    1
    75    48    47    1
    76    96    95    1
    77    96    99    1
    78    96    97    1
    79    47    49    1
    80    47    46    2
    81    45    46    1
    82    45    44    1
    83    85    84    2
    84    40    41    1
    85    98    97    2
    86    57    56    1
    87    60    63    1
    88    60    59    1
    89    41    42    2
    90    56    55    1
    91    55    54    1
    92    54    51    1
    93    53    52    2
    94    51    52    1
    95    51    50    1
