@<TRIPOS>MOLECULE
tmp/3cd0C00.pdb
 95 87 0 0 0
SMALL
GASTEIGER

@<TRIPOS>ATOM
      1  N         -0.1490   39.9020   -2.8800 N.3    82  GLU82      -0.1245
      2  CA         0.7040   39.9030   -4.0770 C.3    82  GLU82       0.1567
      3  C         -0.0520   39.3790   -5.3040 C.2    82  GLU82       0.2260
      4  O         -1.1080   38.7620   -5.1650 O.2    82  GLU82      -0.2867
      5  CB         1.9510   39.0390   -3.8530 C.3    82  GLU82       0.0388
      6  CG         2.8230   39.4660   -2.6770 C.3    82  GLU82       0.1160
      7  CD         2.3330   38.9470   -1.3280 C.2    82  GLU82       0.3649
      8  OE1        2.0260   37.7340   -1.2010 O.co2  82  GLU82      -0.2457
      9  OE2        2.2620   39.7650   -0.3820 O.co2  82  GLU82      -0.2457
     10  N          3.6520   31.2170   20.0120 N.3   144  ARG144     -0.1245
     11  CA         4.3170   30.4810   18.9490 C.3   144  ARG144      0.1563
     12  C          4.9610   29.2670   19.6190 C.2   144  ARG144      0.2260
     13  O          5.4860   29.3780   20.7290 O.2   144  ARG144     -0.2867
     14  CB         5.3490   31.3770   18.2630 C.3   144  ARG144      0.0307
     15  CG         6.1130   30.7660   17.1070 C.3   144  ARG144      0.0489
     16  CD         5.2400   30.1980   16.0100 C.3   144  ARG144      0.2205
     17  NE         4.8950   31.1760   14.9820 N.pl3 144  ARG144     -0.0865
     18  CZ         3.9110   31.0110   14.0970 C.cat 144  ARG144      0.5346
     19  NH1        3.1770   29.9030   14.0970 N.pl3 144  ARG144      0.1354
     20  NH2        3.6710   31.9520   13.1930 N.pl3 144  ARG144      0.1354
     21  N          1.5840   37.8890   15.8820 N.3   211  MET211     -0.1230
     22  CA         2.2630   36.7220   15.3040 C.3   211  MET211      0.1702
     23  C          3.7200   37.0220   14.9280 C.2   211  MET211      0.2592
     24  O          4.6300   36.3350   15.3850 O.2   211  MET211     -0.2718
     25  CB         1.4950   36.1660   14.0880 C.3   211  MET211      0.0401
     26  CG         0.4450   35.1170   14.4500 C.3   211  MET211      0.0596
     27  SD         1.0640   33.4270   14.4130 S.3   211  MET211     -0.1393
     28  CE         1.8150   33.3110   16.0200 C.3   211  MET211      0.0692
     29  N          3.9320   38.0500   14.1110 N.am  212  ASN212     -0.1974
     30  CA         5.2760   38.4200   13.6710 C.3   212  ASN212      0.1688
     31  C          6.1570   38.9440   14.8090 C.2   212  ASN212      0.2292
     32  O          7.3830   38.8250   14.7580 O.2   212  ASN212     -0.2864
     33  CB         5.2070   39.4410   12.5310 C.3   212  ASN212      0.1181
     34  CG         4.6820   38.8290   11.2350 C.2   212  ASN212      0.2629
     35  OD1        5.3020   37.9250   10.6630 O.2   212  ASN212     -0.2716
     36  ND2        3.5260   39.3080   10.7750 N.am  212  ASN212     -0.0877
     37  N          7.2470   35.7670   16.9350 N.3   215  SER215     -0.1217
     38  CA         8.2140   35.0000   16.1470 C.3   215  SER215      0.1889
     39  C          9.5980   35.6310   16.2140 C.2   215  SER215      0.2288
     40  O         10.6010   34.9250   16.2490 O.2   215  SER215     -0.2866
     41  CB         7.7860   34.9230   14.6840 C.3   215  SER215      0.2089
     42  OG         7.9030   36.1900   14.0620 O.3   215  SER215     -0.2183
     43  N         10.4820   26.9670   13.3910 N.3   237  VAL237     -0.1231
     44  CA        10.0900   27.9990   14.3540 C.3   237  VAL237      0.1692
     45  C          8.6070   27.8700   14.7590 C.2   237  VAL237      0.2592
     46  O          8.1900   28.4340   15.7740 O.2   237  VAL237     -0.2718
     47  CB        10.4520   29.4380   13.8450 C.3   237  VAL237      0.0266
     48  CG1        9.5760   29.8640   12.6740 C.3   237  VAL237      0.0020
     49  CG2       10.3730   30.4640   14.9810 C.3   237  VAL237      0.0020
     50  N          7.8270   27.1260   13.9640 N.am  238  SER238     -0.1952
     51  CA         6.5150   26.6130   14.3800 C.3   238  SER238      0.1924
     52  C          6.4730   25.0960   14.2530 C.2   238  SER238      0.2314
     53  O          6.5250   24.5640   13.1420 O.2   238  SER238     -0.2863
     54  CB         5.3900   27.1890   13.5190 C.3   238  SER238      0.2116
     55  OG         4.1790   26.4540   13.7120 O.3   238  SER238     -0.2180
     56  N          3.7550   23.3840   15.2720 N.3   240  ASN240     -0.1240
     57  CA         2.3180   23.1600   15.4770 C.3   240  ASN240      0.1653
     58  C          1.8820   23.1190   16.9430 C.2   240  ASN240      0.2266
     59  O          0.7620   22.7370   17.2420 O.2   240  ASN240     -0.2867
     60  CB         1.8260   21.9010   14.7260 C.3   240  ASN240      0.1155
     61  CG         1.5630   22.1550   13.2540 C.2   240  ASN240      0.2627
     62  OD1        1.7560   23.2590   12.7530 O.2   240  ASN240     -0.2716
     63  ND2        1.1240   21.1220   12.5510 N.am  240  ASN240     -0.0877
     64  N          1.7180   25.8290   18.7640 N.3   242  CYS242     -0.1235
     65  CA         1.2760   27.1910   19.0880 C.3   242  CYS242      0.1677
     66  C         -0.1360   27.2430   19.6880 C.2   242  CYS242      0.2270
     67  O         -0.2730   27.7920   20.7790 O.2   242  CYS242     -0.2867
     68  CB         1.4070   28.1540   17.9010 C.3   242  CYS242      0.0956
     69  SG         2.7170   27.7380   16.7350 S.3   242  CYS242     -0.0801
     70  N         -1.4610   27.4830   15.6060 N.3   244  ASP244     -0.1225
     71  CA        -2.0140   28.5070   14.7210 C.3   244  ASP244      0.1805
     72  C         -2.7880   27.9320   13.5340 C.2   244  ASP244      0.2598
     73  O         -2.2450   27.1770   12.7310 O.2   244  ASP244     -0.2718
     74  CB        -0.8860   29.4040   14.2000 C.3   244  ASP244      0.1424
     75  CG        -1.4010   30.6720   13.5290 C.2   244  ASP244      0.3668
     76  OD1       -2.2800   31.3590   14.0890 O.co2 244  ASP244     -0.2456
     77  OD2       -0.9720   31.0600   12.4280 O.co2 244  ASP244     -0.2456
     78  N         -4.0590   28.3150   13.4340 N.am  245  LYS245     -0.1966
     79  CA        -4.9060   28.0190   12.2850 C.3   245  LYS245      0.1728
     80  C         -5.1730   26.5250   12.0520 C.2   245  LYS245      0.2616
     81  O         -5.5510   26.1190   10.9470 O.2   245  LYS245     -0.2715
     82  CB        -4.3380   28.7000   11.0390 C.3   245  LYS245      0.0311
     83  CG        -4.1900   30.2190   11.2150 C.3   245  LYS245      0.0038
     84  CD        -3.5690   30.8710    9.9880 C.3   245  LYS245      0.0206
     85  CE        -3.3540   32.3520   10.1720 C.3   245  LYS245      0.1093
     86  NZ        -2.8090   32.9860    8.9270 N.3   245  LYS245     -0.1314
     87  N         -4.9780   25.7210   13.1020 N.am  246  LYS246     -0.1977
     88  CA        -5.4320   24.3310   13.1360 C.3   246  LYS246      0.1596
     89  C         -6.1570   24.0490   14.4590 C.2   246  LYS246      0.2287
     90  O         -5.7940   24.6060   15.4970 O.2   246  LYS246     -0.2864
     91  CB        -4.2580   23.3620   13.0130 C.3   246  LYS246      0.0298
     92  CG        -3.6640   23.2340   11.6150 C.3   246  LYS246      0.0038
     93  CD        -2.5750   24.2660   11.3360 C.3   246  LYS246      0.0206
     94  CE        -1.3810   24.1590   12.2980 C.3   246  LYS246      0.1093
     95  NZ        -0.1980   24.9330   11.7810 N.3   246  LYS246     -0.1314
@<TRIPOS>BOND
     1     3     4    2
     2     3     2    1
     3     2     5    1
     4     2     1    1
     5     5     6    1
     6     6     7    1
     7     7     8   ar
     8     7     9   ar
     9    86    85    1
    10    84    85    1
    11    84    83    1
    12    35    34    2
    13    36    34   am
    14    81    80    2
    15    82    83    1
    16    82    79    1
    17    34    33    1
    18    93    92    1
    19    93    94    1
    20    92    91    1
    21    95    94    1
    22    80    79    1
    23    80    87   am
    24    79    78    1
    25    77    75   ar
    26    33    30    1
    27    63    61   am
    28    48    47    1
    29    73    72    2
    30    62    61    2
    31    91    88    1
    32    87    88    1
    33    88    89    1
    34    53    52    2
    35    20    18    1
    36    61    60    1
    37    43    44    1
    38    78    72   am
    39    54    55    1
    40    54    51    1
    41    75    76   ar
    42    75    74    1
    43    72    71    1
    44    30    29    1
    45    30    31    1
    46    47    44    1
    47    47    49    1
    48    50    51    1
    49    50    45   am
    50    42    41    1
    51    25    26    1
    52    25    22    1
    53    18    19    1
    54    18    17    2
    55    29    23   am
    56    74    71    1
    57    52    51    1
    58    44    45    1
    59    27    26    1
    60    27    28    1
    61    89    90    2
    62    41    38    1
    63    71    70    1
    64    60    57    1
    65    32    31    2
    66    45    46    2
    67    23    22    1
    68    23    24    2
    69    17    16    1
    70    56    57    1
    71    22    21    1
    72    57    58    1
    73    16    15    1
    74    38    39    1
    75    38    37    1
    76    39    40    2
    77    69    68    1
    78    58    59    2
    79    15    14    1
    80    68    65    1
    81    14    11    1
    82    64    65    1
    83    11    12    1
    84    11    10    1
    85    65    66    1
    86    12    13    2
    87    66    67    2
