@<TRIPOS>MOLECULE
tmp/3cd2A01.pdb
 206 200 0 0 0
SMALL
GASTEIGER

@<TRIPOS>ATOM
      1  N          5.5770    4.0160   16.9280 N.3    10  ILE10      -0.1231
      2  CA         6.0740    3.2260   15.7750 C.3    10  ILE10       0.1692
      3  C          7.5120    2.8670   16.1360 C.2    10  ILE10       0.2592
      4  O          8.2890    3.7770   16.5540 O.2    10  ILE10      -0.2718
      5  CB         5.7160    3.9880   14.4390 C.3    10  ILE10       0.0266
      6  CG1        6.2900    3.1970   13.2380 C.3    10  ILE10       0.0019
      7  CG2        6.1340    5.4650   14.5050 C.3    10  ILE10       0.0020
      8  CD1        6.1150    3.8710   11.8590 C.3    10  ILE10       0.0001
      9  N          7.8010    1.5550   16.0850 N.am   11  VAL11      -0.1966
     10  CA         9.1630    1.0690   16.4580 C.3    11  VAL11       0.1727
     11  C          9.5660   -0.1270   15.6140 C.2    11  VAL11       0.2612
     12  O          8.7090   -0.7060   14.9370 O.2    11  VAL11      -0.2715
     13  CB         9.0720    0.8360   17.9680 C.3    11  VAL11       0.0290
     14  CG1        7.8800   -0.0470   18.3070 C.3    11  VAL11       0.0023
     15  CG2       10.3400    0.3190   18.6470 C.3    11  VAL11       0.0023
     16  N         10.8420   -0.4540   15.6100 N.am   12  ALA12      -0.2031
     17  CA        11.4230   -1.5950   14.8400 C.3    12  ALA12       0.1283
     18  C         12.2410   -2.2730   15.9440 C.3    12  ALA12       0.2036
     19  O         13.0750   -1.5360   16.4660 O.3    12  ALA12      -0.2185
     20  CB        12.2480   -1.3320   13.6210 C.3    12  ALA12       0.0262
     21  N         22.7460    4.7470   17.5810 N.3    24  SER24      -0.1202
     22  CA        22.4370    4.4830   16.1590 C.3    24  SER24       0.2020
     23  C         21.4730    3.3040   16.0560 C.2    24  SER24       0.2618
     24  O         21.0560    2.7830   17.0940 O.2    24  SER24      -0.2717
     25  CB        23.7750    4.1770   15.4900 C.3    24  SER24       0.2103
     26  OG        23.8160    4.3840   14.0960 O.3    24  SER24      -0.2182
     27  N         21.1730    2.9080   14.8360 N.am   25  LEU25      -0.1979
     28  CA        20.2700    1.7640   14.5690 C.3    25  LEU25       0.1596
     29  C         21.2130    0.6260   14.2170 C.2    25  LEU25       0.2287
     30  O         21.9970    0.8240   13.2930 O.2    25  LEU25      -0.2864
     31  CB        19.2900    2.1580   13.4820 C.3    25  LEU25       0.0297
     32  CG        17.8110    2.3630   13.7590 C.3    25  LEU25       0.0022
     33  CD1       17.4910    2.7860   15.1720 C.3    25  LEU25       0.0001
     34  CD2       17.3200    3.4250   12.7540 C.3    25  LEU25       0.0001
     35  N         20.9390   -1.5440   12.4410 N.3    27  TRP27      -0.1241
     36  CA        20.6970   -1.9740   11.0520 C.3    27  TRP27       0.1605
     37  C         20.4480   -0.8750   10.0320 C.2    27  TRP27       0.2264
     38  O         20.2720    0.2800   10.4430 O.2    27  TRP27      -0.2867
     39  CB        19.4710   -2.9010   11.1070 C.3    27  TRP27       0.0550
     40  CG        18.2680   -2.2150   11.6870 C.ar   27  TRP27       0.0003
     41  CD1       17.4890   -1.2480   11.1200 C.ar   27  TRP27       0.0946
     42  CD2       17.6940   -2.4940   12.9700 C.ar   27  TRP27       0.0152
     43  NE1       16.4650   -0.9070   11.9460 N.ar   27  TRP27      -0.2442
     44  CE2       16.5720   -1.6420   13.1010 C.ar   27  TRP27       0.0810
     45  CE3       18.0430   -3.3490   14.0120 C.ar   27  TRP27       0.0012
     46  CZ2       15.7920   -1.6240   14.2560 C.ar   27  TRP27       0.0191
     47  CZ3       17.2680   -3.3610   15.1390 C.ar   27  TRP27       0.0001
     48  CH2       16.1670   -2.5090   15.2440 C.ar   27  TRP27       0.0015
     49  N         16.4650   -0.1010    3.8350 N.3    30  LYS30      -0.1245
     50  CA        15.8310    0.8890    2.9350 C.3    30  LYS30       0.1561
     51  C         14.3310    0.7060    2.9160 C.2    30  LYS30       0.2260
     52  O         13.6590    1.7460    2.9720 O.2    30  LYS30      -0.2867
     53  CB        16.5430    0.9230    1.6040 C.3    30  LYS30       0.0271
     54  CG        16.0260    2.0480    0.7060 C.3    30  LYS30       0.0035
     55  CD        16.3060    1.7290   -0.7690 C.3    30  LYS30       0.0206
     56  CE        15.4860    2.6680   -1.6350 C.3    30  LYS30       0.1093
     57  NZ        15.1180    1.9240   -2.8730 N.3    30  LYS30      -0.1314
     58  N         12.4380   -0.7540    5.2350 N.3    32  GLU32      -0.1231
     59  CA        11.9450   -0.4910    6.5970 C.3    32  GLU32       0.1699
     60  C         11.7350    1.0250    6.7100 C.2    32  GLU32       0.2592
     61  O         10.6160    1.4310    7.0990 O.2    32  GLU32      -0.2718
     62  CB        12.8270   -1.0750    7.6830 C.3    32  GLU32       0.0402
     63  CG        12.2010   -1.4730    9.0250 C.3    32  GLU32       0.1161
     64  CD        11.5770   -0.3240    9.7900 C.2    32  GLU32       0.3649
     65  OE1       12.2480    0.6330   10.1550 O.co2  32  GLU32      -0.2457
     66  OE2       10.3580   -0.3910   10.0340 O.co2  32  GLU32      -0.2457
     67  N         12.6870    1.8720    6.3520 N.am   33  ILE33      -0.1966
     68  CA        12.5950    3.3360    6.4040 C.3    33  ILE33       0.1727
     69  C         11.5210    3.9570    5.5040 C.2    33  ILE33       0.2617
     70  O         10.9160    4.9980    5.8970 O.2    33  ILE33      -0.2715
     71  CB        13.9630    4.0510    6.1980 C.3    33  ILE33       0.0290
     72  CG1       14.8750    4.0010    7.4420 C.3    33  ILE33       0.0022
     73  CG2       13.7310    5.4840    5.6570 C.3    33  ILE33       0.0023
     74  CD1       14.2590    4.2410    8.8290 C.3    33  ILE33       0.0001
     75  N         11.2400    3.3690    4.3640 N.am   34  SER34      -0.1936
     76  CA        10.1830    3.7950    3.4480 C.3    34  SER34       0.2055
     77  C          8.8110    3.4790    4.0530 C.2    34  SER34       0.2643
     78  O          7.8810    4.2780    3.8450 O.2    34  SER34      -0.2714
     79  CB        10.3180    3.0610    2.1210 C.3    34  SER34       0.2130
     80  OG        11.7160    3.1730    1.7990 O.3    34  SER34      -0.2179
     81  N          8.6440    2.3530    4.7270 N.am   35  TYR35      -0.1959
     82  CA         7.3790    2.0190    5.3830 C.3    35  TYR35       0.1771
     83  C          7.1970    3.1330    6.4520 C.2    35  TYR35       0.2620
     84  O          6.1300    3.6870    6.6830 O.2    35  TYR35      -0.2715
     85  CB         7.4270    0.6700    6.1120 C.3    35  TYR35       0.0574
     86  CG         6.3690    0.2510    7.0980 C.ar   35  TYR35      -0.0198
     87  CD1        5.1300   -0.2140    6.6710 C.ar   35  TYR35      -0.0009
     88  CD2        6.5380    0.2920    8.4720 C.ar   35  TYR35      -0.0009
     89  CE1        4.1130   -0.6250    7.5360 C.ar   35  TYR35       0.0417
     90  CE2        5.5530   -0.0890    9.3790 C.ar   35  TYR35       0.0417
     91  CZ         4.3460   -0.5600    8.8990 C.ar   35  TYR35       0.1957
     92  OH         3.3750   -0.9800    9.7800 O.3    35  TYR35      -0.2866
     93  N          8.3450    3.4300    7.1030 N.am   36  PHE36      -0.1960
     94  CA         8.2960    4.4480    8.1820 C.3    36  PHE36       0.1771
     95  C          7.6230    5.6800    7.5930 C.2    36  PHE36       0.2619
     96  O          6.5080    6.0450    7.9910 O.2    36  PHE36      -0.2715
     97  CB         9.6420    4.5580    8.8790 C.3    36  PHE36       0.0574
     98  CG         9.7230    5.7360    9.8030 C.ar   36  PHE36      -0.0200
     99  CD1        9.3120    5.6390   11.1260 C.ar   36  PHE36      -0.0042
    100  CD2       10.1900    6.9510    9.3120 C.ar   36  PHE36      -0.0042
    101  CE1        9.4190    6.7300   11.9850 C.ar   36  PHE36      -0.0003
    102  CE2       10.2580    8.0760   10.1480 C.ar   36  PHE36      -0.0003
    103  CZ         9.8540    7.9520   11.4970 C.ar   36  PHE36      -0.0000
    104  N          8.2870    6.2850    6.6120 N.am   37  LYS37      -0.1977
    105  CA         7.8370    7.4690    5.9000 C.3    37  LYS37       0.1596
    106  C          6.3570    7.4630    5.5080 C.2    37  LYS37       0.2287
    107  O          5.5360    8.3820    5.7180 O.2    37  LYS37      -0.2864
    108  CB         8.6460    7.5610    4.6120 C.3    37  LYS37       0.0298
    109  CG         8.0000    8.5360    3.6280 C.3    37  LYS37       0.0038
    110  CD         9.1530    9.3350    2.9940 C.3    37  LYS37       0.0206
    111  CE         8.4560   10.3240    2.0530 C.3    37  LYS37       0.1093
    112  NZ         9.4890   11.1360    1.3580 N.3    37  LYS37      -0.1314
    113  N         17.1860   11.3350   19.1920 N.3    61  THR61      -0.1218
    114  CA        16.6530   10.7880   17.9520 C.3    61  THR61       0.1862
    115  C         16.7380   11.8700   16.8870 C.2    61  THR61       0.2287
    116  O         17.1240   11.6010   15.7330 O.2    61  THR61      -0.2866
    117  CB        15.2350   10.1350   18.1480 C.3    61  THR61       0.1770
    118  OG1       15.4870    8.9990   19.0180 O.3    61  THR61      -0.2211
    119  CG2       14.6140    9.6400   16.8400 C.3    61  THR61       0.0375
    120  N         20.1540   12.1590   15.6280 N.3    64  SER64      -0.1202
    121  CA        20.5540   10.9690   14.8490 C.3    64  SER64       0.2020
    122  C         20.0940   10.9940   13.3920 C.2    64  SER64       0.2619
    123  O         20.7820   10.4850   12.4740 O.2    64  SER64      -0.2717
    124  CB        20.0170    9.7010   15.5050 C.3    64  SER64       0.2103
    125  OG        20.7810    9.2780   16.6010 O.3    64  SER64      -0.2182
    126  N         18.9250   11.5440   13.1490 N.am   65  ILE65      -0.1966
    127  CA        18.3320   11.6490   11.8340 C.3    65  ILE65       0.1712
    128  C         19.2210   12.4340   10.8620 C.2    65  ILE65       0.2458
    129  O         19.4630   13.6200   11.1570 O.2    65  ILE65      -0.2730
    130  CB        16.9780   12.4580   11.8830 C.3    65  ILE65       0.0289
    131  CG1       15.8570   11.7130   12.6480 C.3    65  ILE65       0.0022
    132  CG2       16.5410   12.9040   10.4620 C.3    65  ILE65       0.0023
    133  CD1       14.4620   12.3960   12.4100 C.3    65  ILE65       0.0001
    134  N         19.6200   11.7880    9.7870 N.am   66  PRO66      -0.2727
    135  CA        20.4440   12.4070    8.7380 C.3    66  PRO66       0.1402
    136  C         19.9680   13.8250    8.5530 C.2    66  PRO66       0.2269
    137  O         18.7880   14.0490    8.2240 O.2    66  PRO66      -0.2865
    138  CB        20.1970   11.5110    7.5370 C.3    66  PRO66       0.0296
    139  CG        20.1140   10.1410    8.1680 C.3    66  PRO66       0.0237
    140  CD        19.3490   10.3800    9.4580 C.3    66  PRO66       0.0939
    141  N         17.7530   14.9040    6.0290 N.3    69  PHE69      -0.1241
    142  CA        16.3610   14.4390    6.1260 C.3    69  PHE69       0.1605
    143  C         15.5820   15.0290    7.3010 C.2    69  PHE69       0.2264
    144  O         14.4530   14.5990    7.6070 O.2    69  PHE69      -0.2867
    145  CB        16.3600   12.9130    6.2520 C.3    69  PHE69       0.0534
    146  CG        16.7310   12.1880    4.9900 C.ar   69  PHE69      -0.0203
    147  CD1       16.0570   12.4820    3.7990 C.ar   69  PHE69      -0.0042
    148  CD2       17.7460   11.2330    5.0040 C.ar   69  PHE69      -0.0042
    149  CE1       16.3990   11.8110    2.6150 C.ar   69  PHE69      -0.0003
    150  CE2       18.0920   10.5560    3.8490 C.ar   69  PHE69      -0.0003
    151  CZ        17.4220   10.8480    2.6580 C.ar   69  PHE69      -0.0000
    152  N         11.5990   16.0120    9.3820 N.3    72  LEU72      -0.1231
    153  CA        10.8810   14.9650    8.6290 C.3    72  LEU72       0.1693
    154  C          9.9290   15.7710    7.7590 C.2    72  LEU72       0.2591
    155  O          9.1300   16.5060    8.3640 O.2    72  LEU72      -0.2718
    156  CB        10.3180   13.9330    9.5980 C.3    72  LEU72       0.0284
    157  CG        11.3150   13.0710   10.3640 C.3    72  LEU72       0.0019
    158  CD1       10.6560   11.9280   11.1440 C.3    72  LEU72       0.0001
    159  CD2       12.3320   12.5130    9.3670 C.3    72  LEU72       0.0001
    160  N         10.0280   15.6800    6.4160 N.am   73  LYS73      -0.1980
    161  CA         9.1960   16.4030    5.4650 C.3    73  LYS73       0.1596
    162  C          7.7610   15.9110    5.5140 C.2    73  LYS73       0.2287
    163  O          7.4760   14.6950    5.6300 O.2    73  LYS73      -0.2864
    164  CB         9.7130   16.2860    4.0030 C.3    73  LYS73       0.0298
    165  CG        11.0010   17.0450    3.7190 C.3    73  LYS73       0.0038
    166  CD        11.6050   16.8730    2.3350 C.3    73  LYS73       0.0206
    167  CE        13.0820   17.2770    2.2580 C.3    73  LYS73       0.1093
    168  NZ        13.6260   17.1110    0.8560 N.3    73  LYS73      -0.1314
    169  N          5.4630   16.2950    7.8580 N.3    75  ARG75      -0.1245
    170  CA         4.8200   15.9840    9.1450 C.3    75  ARG75       0.1563
    171  C          5.1530   17.0160   10.2140 C.2    75  ARG75       0.2260
    172  O          6.3050   17.4800   10.2500 O.2    75  ARG75      -0.2867
    173  CB         5.3010   14.6240    9.6560 C.3    75  ARG75       0.0307
    174  CG         4.9500   13.2940    9.0230 C.3    75  ARG75       0.0489
    175  CD         6.1210   12.3590    8.9950 C.3    75  ARG75       0.2205
    176  NE         7.1040   12.6950    7.9930 N.pl3  75  ARG75      -0.0865
    177  CZ         8.0590   11.9760    7.4050 C.cat  75  ARG75       0.5346
    178  NH1        8.3620   10.7180    7.6910 N.pl3  75  ARG75       0.1354
    179  NH2        8.7180   12.5420    6.3540 N.pl3  75  ARG75       0.1354
    180  N          7.8780    8.4150   17.7620 N.3   123  ILE123     -0.1245
    181  CA         8.8420    7.7060   16.9690 C.3   123  ILE123      0.1561
    182  C         10.1060    7.2730   17.6590 C.2   123  ILE123      0.2260
    183  O         10.9290    6.5350   17.0360 O.2   123  ILE123     -0.2867
    184  CB         9.0880    8.5150   15.6440 C.3   123  ILE123      0.0252
    185  CG1        9.9140    9.8140   15.7930 C.3   123  ILE123      0.0019
    186  CG2        7.7440    8.8100   14.8990 C.3   123  ILE123      0.0019
    187  CD1       10.8060   10.1260   14.5230 C.3   123  ILE123      0.0001
    188  N          9.7780    6.4590   24.6170 N.3   129  TYR129     -0.1241
    189  CA         8.9680    5.2670   24.4490 C.3   129  TYR129      0.1605
    190  C          8.4320    4.9990   25.8780 C.2   129  TYR129      0.2264
    191  O          7.2440    4.7150   26.0130 O.2   129  TYR129     -0.2867
    192  CB         9.7570    4.0460   23.9420 C.3   129  TYR129      0.0534
    193  CG         9.9200    4.0630   22.4430 C.ar  129  TYR129     -0.0201
    194  CD1        8.9330    4.6410   21.6210 C.ar  129  TYR129     -0.0009
    195  CD2       11.0430    3.4690   21.8470 C.ar  129  TYR129     -0.0009
    196  CE1        9.0620    4.6570   20.2370 C.ar  129  TYR129      0.0417
    197  CE2       11.1650    3.4900   20.4710 C.ar  129  TYR129      0.0417
    198  CZ        10.1860    4.0740   19.6780 C.ar  129  TYR129      0.1957
    199  OH        10.4100    4.0320   18.3190 O.3   129  TYR129     -0.2866
    200  N          7.6090   -3.2800   13.7720 N.3   144  THR144     -0.1218
    201  CA         8.3730   -4.0270   12.7860 C.3   144  THR144      0.1862
    202  C          9.2580   -4.9810   13.6020 C.2   144  THR144      0.2287
    203  O         10.0600   -4.4270   14.3890 O.2   144  THR144     -0.2866
    204  CB         9.2400   -3.1310   11.8100 C.3   144  THR144      0.1770
    205  OG1        8.3430   -2.1800   11.1420 O.3   144  THR144     -0.2211
    206  CG2       10.0070   -4.0020   10.8090 C.3   144  THR144      0.0375
@<TRIPOS>BOND
     1    57    56    1
     2    56    55    1
     3    55    54    1
     4    54    53    1
     5   168   167    1
     6   112   111    1
     7    53    50    1
     8    80    79    1
     9   111   110    1
    10    79    76    1
    11   167   166    1
    12   166   165    1
    13   149   151   ar
    14   149   147   ar
    15   151   150   ar
    16    51    50    1
    17    51    52    2
    18    50    49    1
    19   110   109    1
    20    76    77    1
    21    76    75    1
    22   109   108    1
    23   165   164    1
    24   147   146   ar
    25    78    77    2
    26   150   148   ar
    27   164   161    1
    28    77    81   am
    29    75    69   am
    30   108   105    1
    31    81    82    1
    32   146   148   ar
    33   146   145    1
    34    58    59    1
    35    82    85    1
    36    82    83    1
    37   161   162    1
    38   161   160    1
    39    69    70    2
    40    69    68    1
    41   106   107    2
    42   106   105    1
    43   162   163    2
    44    73    71    1
    45   105   104    1
    46   141   142    1
    47    85    86    1
    48   142   145    1
    49   142   143    1
    50    71    68    1
    51    71    72    1
    52    67    68    1
    53    67    60   am
    54   179   177    1
    55   160   154   am
    56    83    84    2
    57    83    93   am
    58    59    60    1
    59    59    62    1
    60   104    95   am
    61    87    86   ar
    62    87    89   ar
    63    60    61    2
    64    86    88   ar
    65    93    94    1
    66   143   144    2
    67   177   178    1
    68   177   176    2
    69    72    74    1
    70    89    91   ar
    71   138   139    1
    72   138   135    1
    73    95    96    2
    74    95    94    1
    75    62    63    1
    76   154   155    2
    77   154   153    1
    78   169   170    1
    79   176   175    1
    80   139   140    1
    81    94    97    1
    82   137   136    2
    83    88    90   ar
    84   136   135    1
    85   153   152    1
    86   153   156    1
    87   135   134    1
    88    97    98    1
    89    91    90   ar
    90    91    92    1
    91   175   174    1
    92   174   173    1
    93    63    64    1
    94   170   173    1
    95   170   171    1
    96   100    98   ar
    97   100   102   ar
    98   159   157    1
    99   140   134    1
   100   156   157    1
   101   134   128   am
   102    64    66   ar
   103    64    65   ar
   104    98    99   ar
   105    37    38    2
   106    37    36    1
   107   102   103   ar
   108   171   172    2
   109   157   158    1
   110   132   130    1
   111   206   204    1
   112   128   129    2
   113   128   127    1
   114    36    39    1
   115    36    35    1
   116    39    40    1
   117    41    40   ar
   118    41    43   ar
   119    99   101   ar
   120   205   204    1
   121   103   101   ar
   122    40    42   ar
   123   204   201    1
   124   127   130    1
   125   127   126    1
   126     8     6    1
   127   130   131    1
   128    43    44   ar
   129   133   131    1
   130   123   122    2
   131    34    32    1
   132   201   202    1
   133   201   200    1
   134    42    44   ar
   135    42    45   ar
   136    44    46   ar
   137   126   122   am
   138     6     5    1
   139    30    29    2
   140   122   121    1
   141    31    32    1
   142    31    28    1
   143   202   203    2
   144    20    17    1
   145    32    33    1
   146    45    47   ar
   147    26    25    1
   148    29    28    1
   149    46    48   ar
   150     5     7    1
   151     5     2    1
   152   187   185    1
   153    28    27    1
   154    27    23   am
   155    17    16    1
   156    17    18    1
   157   121   124    1
   158   121   120    1
   159   186   184    1
   160    12    11    2
   161    47    48   ar
   162    25    22    1
   163   124   125    1
   164    16    11   am
   165    11    10    1
   166   184   185    1
   167   184   181    1
   168   116   115    2
   169     2     3    1
   170     2     1    1
   171    18    19    1
   172    23    22    1
   173    23    24    2
   174     9     3   am
   175     9    10    1
   176     3     4    2
   177    22    21    1
   178    10    13    1
   179   119   117    1
   180   115   114    1
   181   181   182    1
   182   181   180    1
   183   183   182    2
   184   114   117    1
   185   114   113    1
   186    13    14    1
   187    13    15    1
   188   117   118    1
   189   199   198    1
   190   198   196   ar
   191   198   197   ar
   192   196   194   ar
   193   197   195   ar
   194   194   193   ar
   195   195   193   ar
   196   193   192    1
   197   192   189    1
   198   189   188    1
   199   189   190    1
   200   190   191    2
