@<TRIPOS>MOLECULE
tmp/3cd5B00.pdb
 78 71 0 0 0
SMALL
GASTEIGER

@<TRIPOS>ATOM
      1  N          5.8630   -2.7730   41.0770 N.3   150  ARG150     -0.1245
      2  CA         7.2920   -2.7250   41.3130 C.3   150  ARG150      0.1563
      3  C          7.8810   -3.9980   40.7140 C.2   150  ARG150      0.2260
      4  O          7.3120   -5.0770   40.8580 O.2   150  ARG150     -0.2867
      5  CB         7.5660   -2.6280   42.8050 C.3   150  ARG150      0.0307
      6  CG         9.0070   -2.3290   43.1730 C.3   150  ARG150      0.0489
      7  CD         9.2850   -0.8740   43.4940 C.3   150  ARG150      0.2205
      8  NE         9.8190   -0.1940   42.3250 N.pl3 150  ARG150     -0.0865
      9  CZ        10.5980    0.8760   42.3530 C.cat 150  ARG150      0.5346
     10  NH1       10.9460    1.4490   43.4980 N.pl3 150  ARG150      0.1354
     11  NH2       11.0270    1.3890   41.2110 N.pl3 150  ARG150      0.1354
     12  N          3.6960    3.8890   45.1900 N.3   217  MET217     -0.1245
     13  CA         5.1130    3.4960   45.1610 C.3   217  MET217      0.1570
     14  C          5.6970    3.0860   46.5170 C.2   217  MET217      0.2261
     15  O          6.3870    2.0740   46.6000 O.2   217  MET217     -0.2867
     16  CB         5.9840    4.5870   44.5240 C.3   217  MET217      0.0387
     17  CG         6.0350    4.5070   43.0150 C.3   217  MET217      0.0595
     18  SD         6.9480    3.0720   42.4720 S.3   217  MET217     -0.1393
     19  CE         8.6440    3.6920   42.6040 C.3   217  MET217      0.0692
     20  N          6.4490   -0.9220   47.4270 N.3   221  SER221     -0.1217
     21  CA         7.8480   -1.1800   47.7490 C.3   221  SER221      0.1889
     22  C          7.9740   -1.8600   49.1050 C.2   221  SER221      0.2288
     23  O          8.8410   -2.7100   49.2930 O.2   221  SER221     -0.2866
     24  CB         8.6530    0.1290   47.7530 C.3   221  SER221      0.2089
     25  OG         8.9910    0.5360   46.4330 O.3   221  SER221     -0.2183
     26  N         15.7000   -3.4260   44.1930 N.3   243  VAL243     -0.1231
     27  CA        14.2540   -3.3880   44.4050 C.3   243  VAL243      0.1692
     28  C         13.5540   -3.0230   43.1110 C.2   243  VAL243      0.2592
     29  O         12.4040   -3.3970   42.9080 O.2   243  VAL243     -0.2718
     30  CB        13.8270   -2.4280   45.5520 C.3   243  VAL243      0.0266
     31  CG1       13.8100   -0.9580   45.1130 C.3   243  VAL243      0.0020
     32  CG2       12.4640   -2.8360   46.0890 C.3   243  VAL243      0.0020
     33  N         14.2540   -2.2890   42.2440 N.am  244  SER244     -0.1952
     34  CA        13.8200   -2.0880   40.8660 C.3   244  SER244      0.1924
     35  C         14.8960   -2.5440   39.8810 C.2   244  SER244      0.2314
     36  O         15.9830   -1.9630   39.8200 O.2   244  SER244     -0.2863
     37  CB        13.4860   -0.6210   40.6190 C.3   244  SER244      0.2116
     38  OG        12.8680   -0.4460   39.3560 O.3   244  SER244     -0.2180
     39  N         14.1980   -2.2660   36.7210 N.3   246  ASN246     -0.1240
     40  CA        13.5810   -1.6100   35.5620 C.3   246  ASN246      0.1653
     41  C         12.4530   -2.4070   34.8910 C.2   246  ASN246      0.2266
     42  O         12.1260   -2.1700   33.7240 O.2   246  ASN246     -0.2867
     43  CB        14.6570   -1.1960   34.5390 C.3   246  ASN246      0.1155
     44  CG        15.4020    0.0640   34.9520 C.2   246  ASN246      0.2627
     45  OD1       15.1640    0.6220   36.0360 O.2   246  ASN246     -0.2716
     46  ND2       16.3030    0.5310   34.0830 N.am  246  ASN246     -0.0877
     47  N          9.3700   -2.6000   36.3560 N.3   248  CYS248     -0.1235
     48  CA         8.1190   -2.0800   36.9090 C.3   248  CYS248      0.1677
     49  C          7.0970   -1.6730   35.8330 C.2   248  CYS248      0.2270
     50  O          5.9920   -2.1970   35.8570 O.2   248  CYS248     -0.2867
     51  CB         8.3580   -0.9340   37.9150 C.3   248  CYS248      0.0956
     52  SG         9.9270   -0.9950   38.8250 S.3   248  CYS248     -0.0801
     53  N          9.2010    2.0910   35.9790 N.3   250  ASP250     -0.1225
     54  CA         8.9410    3.4170   36.5270 C.3   250  ASP250      0.1805
     55  C          9.8130    4.5150   35.9010 C.2   250  ASP250      0.2598
     56  O         11.0430    4.4690   35.9790 O.2   250  ASP250     -0.2718
     57  CB         9.1350    3.4020   38.0510 C.3   250  ASP250      0.1424
     58  CG         8.4650    4.5810   38.7390 C.2   250  ASP250      0.3668
     59  OD1        7.4060    5.0430   38.2570 O.co2 250  ASP250     -0.2456
     60  OD2        8.9240    5.1040   39.7720 O.co2 250  ASP250     -0.2456
     61  N          9.1480    5.4990   35.2940 N.am  251  LYS251     -0.1966
     62  CA         9.7800    6.6930   34.7120 C.3   251  LYS251      0.1728
     63  C         10.7860    6.4450   33.5680 C.2   251  LYS251      0.2616
     64  O         11.7200    7.2350   33.3650 O.2   251  LYS251     -0.2715
     65  CB        10.3990    7.5490   35.8210 C.3   251  LYS251      0.0311
     66  CG         9.3920    7.9550   36.8810 C.3   251  LYS251      0.0038
     67  CD        10.0520    8.6820   38.0350 C.3   251  LYS251      0.0206
     68  CE         9.0300    9.1320   39.0600 C.3   251  LYS251      0.1093
     69  NZ         9.6590    9.4480   40.3740 N.3   251  LYS251     -0.1314
     70  N         10.5890    5.3530   32.8320 N.am  252  LYS252     -0.1977
     71  CA        11.2760    5.1160   31.5570 C.3   252  LYS252      0.1596
     72  C         10.2630    4.5540   30.5460 C.2   252  LYS252      0.2287
     73  O          9.3030    3.8870   30.9360 O.2   252  LYS252     -0.2864
     74  CB        12.4140    4.1000   31.7110 C.3   252  LYS252      0.0298
     75  CG        13.6780    4.6150   32.3790 C.3   252  LYS252      0.0038
     76  CD        13.6650    4.4900   33.9130 C.3   252  LYS252      0.0206
     77  CE        13.5600    3.0400   34.4080 C.3   252  LYS252      0.1093
     78  NZ        13.7090    2.9410   35.8910 N.3   252  LYS252     -0.1314
@<TRIPOS>BOND
     1    72    73    2
     2    72    71    1
     3    71    74    1
     4    71    70    1
     5    74    75    1
     6    75    76    1
     7    70    63   am
     8    64    63    2
     9    63    62    1
    10    42    41    2
    11    76    77    1
    12    46    44   am
    13    77    78    1
    14    43    44    1
    15    43    40    1
    16    62    61    1
    17    62    65    1
    18    41    40    1
    19    44    45    2
    20    61    55   am
    21    40    39    1
    22    65    66    1
    23    49    50    2
    24    49    48    1
    25    55    56    2
    26    55    54    1
    27    53    54    1
    28    47    48    1
    29    54    57    1
    30    66    67    1
    31    48    51    1
    32    51    52    1
    33    67    68    1
    34    57    58    1
    35    59    58   ar
    36    58    60   ar
    37    68    69    1
    38    38    37    1
    39    36    35    2
    40    35    34    1
    41    37    34    1
    42     3     4    2
    43     3     2    1
    44    34    33    1
    45     1     2    1
    46    11     9    1
    47     2     5    1
    48    33    28   am
    49     8     9    2
    50     8     7    1
    51     9    10    1
    52    18    19    1
    53    18    17    1
    54     5     6    1
    55    29    28    2
    56    17    16    1
    57    28    27    1
    58     6     7    1
    59    26    27    1
    60    27    30    1
    61    16    13    1
    62    31    30    1
    63    13    12    1
    64    13    14    1
    65    30    32    1
    66    25    24    1
    67    14    15    2
    68    20    21    1
    69    21    24    1
    70    21    22    1
    71    22    23    2
