@<TRIPOS>MOLECULE
tmp/3cd5B01.pdb
 172 163 0 0 0
SMALL
GASTEIGER

@<TRIPOS>ATOM
      1  N          3.3760   26.9830   28.4050 N.3   119  GLU119     -0.1231
      2  CA         3.2740   26.9130   26.9500 C.3   119  GLU119      0.1699
      3  C          2.0140   27.6420   26.5000 C.2   119  GLU119      0.2593
      4  O          0.9000   27.2260   26.8300 O.2   119  GLU119     -0.2718
      5  CB         3.2180   25.4580   26.4780 C.3   119  GLU119      0.0402
      6  CG         2.7940   25.2930   25.0210 C.3   119  GLU119      0.1161
      7  CD         3.1730   23.9420   24.4310 C.2   119  GLU119      0.3649
      8  OE1        3.0630   22.9150   25.1410 O.co2 119  GLU119     -0.2457
      9  OE2        3.5760   23.9090   23.2480 O.co2 119  GLU119     -0.2457
     10  N          2.1990   28.7200   25.7420 N.am  120  GLY120     -0.1942
     11  CA         1.0960   29.4930   25.2020 C.3   120  GLY120      0.2014
     12  C          0.1580   28.6990   24.3130 C.2   120  GLY120      0.2639
     13  O          0.5990   27.8970   23.4930 O.2   120  GLY120     -0.2714
     14  N         -1.1360   28.9400   24.5060 N.am  121  CYS121     -0.1953
     15  CA        -2.2380   28.3250   23.7640 C.3   121  CYS121      0.1843
     16  C         -2.7260   26.9910   24.3120 C.2   121  CYS121      0.2625
     17  O         -3.8140   26.5630   23.9570 O.2   121  CYS121     -0.2714
     18  CB        -1.9140   28.1910   22.2720 C.3   121  CYS121      0.0997
     19  SG        -1.6670   29.7840   21.4670 S.3   121  CYS121     -0.0797
     20  N         -1.9520   26.3380   25.1750 N.am  122  LEU122     -0.1977
     21  CA        -2.3020   24.9890   25.6310 C.3   122  LEU122      0.1596
     22  C         -3.5950   24.9440   26.4440 C.2   122  LEU122      0.2287
     23  O         -4.3880   24.0180   26.2900 O.2   122  LEU122     -0.2864
     24  CB        -1.1590   24.3620   26.4360 C.3   122  LEU122      0.0297
     25  CG        -1.4760   23.0520   27.1690 C.3   122  LEU122      0.0022
     26  CD1       -1.9060   21.9490   26.1920 C.3   122  LEU122      0.0001
     27  CD2       -0.2770   22.6200   27.9990 C.3   122  LEU122      0.0001
     28  N         -6.0330   27.2920   26.3860 N.3   124  ALA124     -0.1231
     29  CA        -7.1340   27.7640   25.5420 C.3   124  ALA124      0.1694
     30  C         -7.5410   26.7090   24.5090 C.2   124  ALA124      0.2592
     31  O         -8.7160   26.5440   24.2100 O.2   124  ALA124     -0.2718
     32  CB        -6.7520   29.0650   24.8500 C.3   124  ALA124      0.0304
     33  N         -6.5630   26.0060   23.9590 N.am  125  SER125     -0.1952
     34  CA        -6.8370   24.9270   23.0170 C.3   125  SER125      0.1924
     35  C         -7.6040   23.8080   23.7180 C.2   125  SER125      0.2314
     36  O         -8.6350   23.3570   23.2280 O.2   125  SER125     -0.2863
     37  CB        -5.5410   24.3740   22.4330 C.3   125  SER125      0.2116
     38  OG        -5.8030   23.2660   21.5890 O.3   125  SER125     -0.2180
     39  N         -9.3790   23.9870   26.3610 N.3   127  ASN127     -0.1225
     40  CA       -10.6910   24.4910   26.7520 C.3   127  ASN127      0.1785
     41  C        -11.6780   24.4730   25.5960 C.2   127  ASN127      0.2597
     42  O        -12.8710   24.2720   25.8010 O.2   127  ASN127     -0.2718
     43  CB       -10.5690   25.9150   27.2940 C.3   127  ASN127      0.1169
     44  CG       -11.9100   26.5250   27.6450 C.2   127  ASN127      0.2627
     45  OD1      -12.6190   26.0280   28.5120 O.2   127  ASN127     -0.2716
     46  ND2      -12.2630   27.6050   26.9680 N.am  127  ASN127     -0.0877
     47  N        -11.1800   24.6960   24.3840 N.am  128  ARG128     -0.1979
     48  CA       -12.0120   24.5990   23.1910 C.3   128  ARG128      0.1597
     49  C        -12.4110   23.1550   22.9350 C.2   128  ARG128      0.2287
     50  O        -13.5450   22.8840   22.5630 O.2   128  ARG128     -0.2864
     51  CB       -11.2930   25.1470   21.9610 C.3   128  ARG128      0.0334
     52  CG       -12.1310   25.0300   20.7030 C.3   128  ARG128      0.0492
     53  CD       -11.4590   25.5430   19.4660 C.3   128  ARG128      0.2205
     54  NE       -10.5830   24.5500   18.8510 N.pl3 128  ARG128     -0.0865
     55  CZ       -10.1260   24.6190   17.6070 C.cat 128  ARG128      0.5346
     56  NH1      -10.4650   25.6210   16.8050 N.pl3 128  ARG128      0.1354
     57  NH2       -9.3280   23.6680   17.1550 N.pl3 128  ARG128      0.1354
     58  N        -17.1260   24.6680   16.3350 N.3   280  VAL280     -0.1245
     59  CA       -16.1070   24.7210   17.3780 C.3   280  VAL280      0.1561
     60  C        -14.7230   24.3880   16.8260 C.2   280  VAL280      0.2260
     61  O        -13.7590   25.0970   17.1000 O.2   280  VAL280     -0.2867
     62  CB       -16.4340   23.7490   18.5320 C.3   280  VAL280      0.0252
     63  CG1      -15.4760   23.9640   19.7030 C.3   280  VAL280      0.0019
     64  CG2      -17.8850   23.9200   18.9880 C.3   280  VAL280      0.0019
     65  N        -13.8630   23.9670   13.5030 N.3   282  LYS282     -0.1245
     66  CA       -13.5730   24.7030   12.2550 C.3   282  LYS282      0.1561
     67  C        -13.0700   23.8030   11.1200 C.2   282  LYS282      0.2260
     68  O        -12.3320   24.2490   10.2340 O.2   282  LYS282     -0.2867
     69  CB       -12.5730   25.8420   12.5090 C.3   282  LYS282      0.0271
     70  CG       -12.9420   26.7660   13.6630 C.3   282  LYS282      0.0035
     71  CD       -14.0830   27.7070   13.2930 C.3   282  LYS282      0.0206
     72  CE       -14.1970   28.8870   14.2640 C.3   282  LYS282      0.1093
     73  NZ       -15.5190   28.9270   14.9580 N.3   282  LYS282     -0.1314
     74  N         -1.1930   10.4550   11.0740 N.3   295  LYS295     -0.1245
     75  CA        -0.2750   11.0770   12.0330 C.3   295  LYS295      0.1561
     76  C         -0.1840   10.2220   13.2870 C.2   295  LYS295      0.2260
     77  O          0.8830    9.7090   13.6140 O.2   295  LYS295     -0.2867
     78  CB        -0.7390   12.4810   12.4000 C.3   295  LYS295      0.0271
     79  CG        -0.0260   13.1140   13.5940 C.3   295  LYS295      0.0035
     80  CD        -0.7850   14.3270   14.0990 C.3   295  LYS295      0.0206
     81  CE        -0.1550   14.8900   15.3600 C.3   295  LYS295      0.1093
     82  NZ         1.2770   15.2400   15.1840 N.3   295  LYS295     -0.1314
     83  N         -1.4370   12.8590   19.7700 N.3   311  ALA311     -0.1231
     84  CA        -0.9440   14.1780   19.3670 C.3   311  ALA311      0.1694
     85  C         -0.0700   14.8040   20.4510 C.2   311  ALA311      0.2592
     86  O          1.1350   14.9460   20.2570 O.2   311  ALA311     -0.2718
     87  CB        -2.1040   15.1120   18.9930 C.3   311  ALA311      0.0304
     88  N         -0.6720   15.1740   21.5830 N.am  312  HIS312     -0.1976
     89  CA         0.0660   15.7810   22.6980 C.3   312  HIS312      0.1656
     90  C         -0.4980   15.4170   24.0790 C.2   312  HIS312      0.2291
     91  O         -0.6550   16.2770   24.9380 O.2   312  HIS312     -0.2864
     92  CB         0.1460   17.3100   22.5340 C.3   312  HIS312      0.0771
     93  CG        -1.1760   18.0180   22.6330 C.ar  312  HIS312      0.0820
     94  ND1       -1.2950   19.3870   22.5200 N.ar  312  HIS312     -0.2267
     95  CD2       -2.4310   17.5510   22.8250 C.ar  312  HIS312      0.1154
     96  CE1       -2.5660   19.7280   22.6290 C.ar  312  HIS312      0.1986
     97  NE2       -3.2740   18.6340   22.8220 N.ar  312  HIS312     -0.2212
     98  N          1.3460   16.9900   26.9250 N.3   315  ASN315     -0.1240
     99  CA         1.0250   18.3650   27.3130 C.3   315  ASN315      0.1653
    100  C         -0.0140   18.4070   28.4240 C.2   315  ASN315      0.2266
    101  O          0.2120   19.0340   29.4590 O.2   315  ASN315     -0.2867
    102  CB         0.5260   19.1910   26.1160 C.3   315  ASN315      0.1155
    103  CG         1.6600   19.8120   25.3090 C.2   315  ASN315      0.2627
    104  OD1        2.7760   19.9810   25.8070 O.2   315  ASN315     -0.2716
    105  ND2        1.3700   20.1690   24.0570 N.am  315  ASN315     -0.0877
    106  N         -8.7870   19.3240   19.8770 N.3   412  SER412     -0.1202
    107  CA        -8.4840   20.7070   19.5520 C.3   412  SER412      0.2020
    108  C         -7.2220   20.8090   18.7150 C.2   412  SER412      0.2618
    109  O         -7.2320   21.4330   17.6640 O.2   412  SER412     -0.2717
    110  CB        -8.3460   21.5420   20.8310 C.3   412  SER412      0.2103
    111  OG        -8.5150   22.9180   20.5510 O.3   412  SER412     -0.2182
    112  N         -6.1360   20.1940   19.1750 N.am  413  LEU413     -0.1979
    113  CA        -4.8840   20.2070   18.4150 C.3   413  LEU413      0.1596
    114  C         -5.0660   19.5950   17.0260 C.2   413  LEU413      0.2287
    115  O         -4.6130   20.1600   16.0390 O.2   413  LEU413     -0.2864
    116  CB        -3.7570   19.4920   19.1690 C.3   413  LEU413      0.0297
    117  CG        -2.3960   19.4230   18.4650 C.3   413  LEU413      0.0022
    118  CD1       -1.9560   20.7800   17.9060 C.3   413  LEU413      0.0001
    119  CD2       -1.3450   18.8930   19.4060 C.3   413  LEU413      0.0001
    120  N         -6.8690   21.8870   14.6230 N.3   416  ALA416     -0.1231
    121  CA        -6.0040   22.9780   14.1740 C.3   416  ALA416      0.1694
    122  C         -5.0170   22.5410   13.1000 C.2   416  ALA416      0.2591
    123  O         -4.6710   23.3280   12.2230 O.2   416  ALA416     -0.2718
    124  CB        -5.2500   23.5700   15.3540 C.3   416  ALA416      0.0304
    125  N         -4.5520   21.2980   13.1790 N.am  417  LEU417     -0.1980
    126  CA        -3.6470   20.7570   12.1660 C.3   417  LEU417      0.1596
    127  C         -4.4260   20.4470   10.8940 C.2   417  LEU417      0.2287
    128  O         -3.9090   20.5900    9.7890 O.2   417  LEU417     -0.2864
    129  CB        -2.9450   19.4850   12.6700 C.3   417  LEU417      0.0297
    130  CG        -2.0590   19.6280   13.9130 C.3   417  LEU417      0.0022
    131  CD1       -1.7050   18.2650   14.4840 C.3   417  LEU417      0.0001
    132  CD2       -0.8030   20.4180   13.6040 C.3   417  LEU417      0.0001
    133  N         -3.4400   25.1190    9.9450 N.3   421  HIS421     -0.1226
    134  CA        -2.5150   25.8640   10.8020 C.3   421  HIS421      0.1752
    135  C         -1.2280   25.0450   10.9160 C.2   421  HIS421      0.2596
    136  O         -1.2700   23.8680   11.2820 O.2   421  HIS421     -0.2718
    137  CB        -3.0380   26.0920   12.2320 C.3   421  HIS421      0.0759
    138  CG        -4.3950   26.7280   12.3320 C.ar  421  HIS421      0.0818
    139  ND1       -4.6100   27.8990   13.0300 N.ar  421  HIS421     -0.2268
    140  CD2       -5.6160   26.3170   11.9120 C.ar  421  HIS421      0.1154
    141  CE1       -5.8960   28.2000   13.0020 C.ar  421  HIS421      0.1986
    142  NE2       -6.5280   27.2580   12.3250 N.ar  421  HIS421     -0.2212
    143  N         -0.0960   25.6700   10.6010 N.am  422  LEU422     -0.1966
    144  CA         1.2190   25.0520   10.7760 C.3   422  LEU422      0.1728
    145  C          2.0390   25.7720   11.8420 C.2   422  LEU422      0.2616
    146  O          3.1250   25.3230   12.2050 O.2   422  LEU422     -0.2715
    147  CB         1.9840   25.0420    9.4460 C.3   422  LEU422      0.0311
    148  CG         1.1900   24.5620    8.2240 C.3   422  LEU422      0.0022
    149  CD1        0.7170   25.7440    7.4060 C.3   422  LEU422      0.0001
    150  CD2        2.0090   23.6180    7.3600 C.3   422  LEU422      0.0001
    151  N          1.5120   26.8910   12.3330 N.am  423  VAL423     -0.1963
    152  CA         2.1550   27.6900   13.3690 C.3   423  VAL423      0.1727
    153  C          1.1100   28.0520   14.4240 C.2   423  VAL423      0.2616
    154  O         -0.0880   28.1110   14.1280 O.2   423  VAL423     -0.2715
    155  CB         2.7780   28.9800   12.7550 C.3   423  VAL423      0.0290
    156  CG1        3.5100   29.8140   13.8030 C.3   423  VAL423      0.0023
    157  CG2        3.7340   28.6180   11.6150 C.3   423  VAL423      0.0023
    158  N          1.5640   28.2670   15.6580 N.am  424  LYS424     -0.1963
    159  CA         0.7110   28.8170   16.7110 C.3   424  LYS424      0.1728
    160  C          0.2950   30.2360   16.3270 C.2   424  LYS424      0.2616
    161  O          1.1340   31.0350   15.9090 O.2   424  LYS424     -0.2715
    162  CB         1.4510   28.8720   18.0490 C.3   424  LYS424      0.0311
    163  CG         1.5420   27.5570   18.8000 C.3   424  LYS424      0.0038
    164  CD         1.9300   27.7940   20.2620 C.3   424  LYS424      0.0206
    165  CE         2.9770   26.8130   20.7560 C.3   424  LYS424      0.1093
    166  NZ         3.5730   27.2530   22.0470 N.3   424  LYS424     -0.1314
    167  N         -0.9940   30.5420   16.4740 N.am  425  SER425     -0.1950
    168  CA        -1.5150   31.8870   16.2130 C.3   425  SER425      0.1924
    169  C         -2.0170   32.5280   17.5110 C.2   425  SER425      0.2314
    170  O         -1.3350   32.4830   18.5420 O.2   425  SER425     -0.2863
    171  CB        -2.6360   31.8370   15.1680 C.3   425  SER425      0.2116
    172  OG        -2.2610   32.5360   13.9920 O.3   425  SER425     -0.2180
@<TRIPOS>BOND
     1   150   148    1
     2   149   148    1
     3   148   147    1
     4   147   144    1
     5   128   127    2
     6   133   134    1
     7    68    67    2
     8   143   144    1
     9   143   135   am
    10   144   145    1
    11   134   135    1
    12   134   137    1
    13   127   126    1
    14   135   136    2
    15    74    75    1
    16    67    66    1
    17   157   155    1
    18   145   146    2
    19   145   151   am
    20   140   142   ar
    21   140   138   ar
    22    75    78    1
    23    75    76    1
    24   126   129    1
    25   126   125    1
    26   123   122    2
    27   137   138    1
    28    66    69    1
    29    66    65    1
    30   142   141   ar
    31   138   139   ar
    32   151   152    1
    33    78    79    1
    34    69    70    1
    35   129   130    1
    36   155   152    1
    37   155   156    1
    38   141   139   ar
    39   122   125   am
    40   122   121    1
    41    76    77    2
    42    71    70    1
    43    71    72    1
    44   152   153    1
    45    79    80    1
    46   132   130    1
    47   130   131    1
    48   172   171    1
    49    80    81    1
    50   154   153    2
    51   121   120    1
    52   121   124    1
    53    72    73    1
    54   153   158   am
    55   171   168    1
    56    82    81    1
    57   158   159    1
    58   161   160    2
    59   115   114    2
    60   168   167    1
    61   168   169    1
    62   160   167   am
    63   160   159    1
    64    58    59    1
    65   159   162    1
    66    56    55    1
    67    60    61    2
    68    60    59    1
    69   114   113    1
    70    57    55    1
    71    59    62    1
    72   169   170    2
    73    55    54    2
    74   109   108    2
    75   118   117    1
    76   162   163    1
    77   113   116    1
    78   113   112    1
    79   117   116    1
    80   117   119    1
    81    62    64    1
    82    62    63    1
    83   108   112   am
    84   108   107    1
    85   163   164    1
    86    54    53    1
    87    87    84    1
    88    84    83    1
    89    84    85    1
    90    53    52    1
    91   107   106    1
    92   107   110    1
    93    86    85    2
    94   164   165    1
    95    85    88   am
    96   111   110    1
    97    52    51    1
    98   165   166    1
    99    19    18    1
   100    88    89    1
   101    38    37    1
   102    51    48    1
   103    18    15    1
   104    37    34    1
   105    94    96   ar
   106    94    93   ar
   107    92    93    1
   108    92    89    1
   109    50    49    2
   110    96    97   ar
   111    93    95   ar
   112    89    90    1
   113    97    95   ar
   114    49    48    1
   115    34    35    1
   116    34    33    1
   117    48    47    1
   118    36    35    2
   119     9     7   ar
   120    13    12    2
   121    15    16    1
   122    15    14    1
   123    17    16    2
   124    33    30   am
   125   105   103   am
   126    90    91    2
   127    31    30    2
   128    16    20   am
   129    12    14   am
   130    12    11    1
   131    47    41   am
   132     7     6    1
   133     7     8   ar
   134    30    29    1
   135    32    29    1
   136     6     5    1
   137    20    21    1
   138    11    10    1
   139   103   104    2
   140   103   102    1
   141    29    28    1
   142    41    42    2
   143    41    40    1
   144    21    24    1
   145    21    22    1
   146    10     3   am
   147   102    99    1
   148    26    25    1
   149    23    22    2
   150    39    40    1
   151    24    25    1
   152     5     2    1
   153     3     4    2
   154     3     2    1
   155    40    43    1
   156    98    99    1
   157     2     1    1
   158    46    44   am
   159    25    27    1
   160    43    44    1
   161    99   100    1
   162    44    45    2
   163   100   101    2
