@<TRIPOS>MOLECULE
tmp/3cd8A00.pdb
 181 171 0 0 0
SMALL
GASTEIGER

@<TRIPOS>ATOM
      1  N         18.7130    3.3550   55.1150 N.3    31  ILE31      -0.1231
      2  CA        18.8820    3.8650   56.4820 C.3    31  ILE31       0.1692
      3  C         18.1070    5.1590   56.7290 C.2    31  ILE31       0.2593
      4  O         17.7900    5.4970   57.8700 O.2    31  ILE31      -0.2718
      5  CB        20.3760    4.0410   56.8690 C.3    31  ILE31       0.0266
      6  CG1       21.1000    4.9800   55.8900 C.3    31  ILE31       0.0019
      7  CG2       21.0570    2.6770   56.9640 C.3    31  ILE31       0.0020
      8  CD1       22.4550    5.4730   56.3720 C.3    31  ILE31       0.0001
      9  N         17.8120    5.8780   55.6520 N.am   32  GLY32      -0.1942
     10  CA        17.0340    7.1050   55.7200 C.3    32  GLY32       0.2014
     11  C         16.2330    7.3060   54.4500 C.2    32  GLY32       0.2638
     12  O         16.7180    7.0280   53.3520 O.2    32  GLY32      -0.2714
     13  N         15.0030    7.7850   54.6040 N.am   33  ARG33      -0.1977
     14  CA        14.1260    8.0550   53.4680 C.3    33  ARG33       0.1597
     15  C         13.7660    9.5310   53.4080 C.2    33  ARG33       0.2287
     16  O         13.1840   10.0770   54.3460 O.2    33  ARG33      -0.2864
     17  CB        12.8530    7.2060   53.5470 C.3    33  ARG33       0.0334
     18  CG        13.1180    5.7230   53.7400 C.3    33  ARG33       0.0492
     19  CD        11.8710    4.8860   53.5600 C.3    33  ARG33       0.2205
     20  NE        12.2190    3.4730   53.4250 N.pl3  33  ARG33      -0.0865
     21  CZ        12.4810    2.8660   52.2700 C.cat  33  ARG33       0.5346
     22  NH1       12.4300    3.5410   51.1260 N.pl3  33  ARG33       0.1354
     23  NH2       12.7940    1.5770   52.2590 N.pl3  33  ARG33       0.1354
     24  N         18.7490    7.0010   51.4790 N.3    39  VAL39      -0.1245
     25  CA        20.0970    7.0730   52.0350 C.3    39  VAL39       0.1561
     26  C         20.5580    5.6490   52.3470 C.2    39  VAL39       0.2260
     27  O         19.7680    4.8250   52.8190 O.2    39  VAL39      -0.2867
     28  CB        20.1540    7.9380   53.3390 C.3    39  VAL39       0.0252
     29  CG1       21.6010    8.2880   53.7020 C.3    39  VAL39       0.0019
     30  CG2       19.3200    9.2160   53.2030 C.3    39  VAL39       0.0019
     31  N         27.3830    8.0300   54.7430 N.3    49  ALA49      -0.1245
     32  CA        26.0030    7.8960   54.3110 C.3    49  ALA49       0.1562
     33  C         25.8880    8.4430   52.8980 C.2    49  ALA49       0.2260
     34  O         26.2600    9.5890   52.6270 O.2    49  ALA49      -0.2867
     35  CB        25.0690    8.6360   55.2520 C.3    49  ALA49       0.0290
     36  N         23.5580    9.4730   49.8420 N.3    51  LYS51      -0.1245
     37  CA        22.1990    9.8690   49.5130 C.3    51  LYS51       0.1561
     38  C         21.9270    9.8800   48.0160 C.2    51  LYS51       0.2260
     39  O         22.6190   10.5480   47.2420 O.2    51  LYS51      -0.2867
     40  CB        21.8410   11.2230   50.1120 C.3    51  LYS51       0.0271
     41  CG        20.3650   11.3130   50.3800 C.3    51  LYS51       0.0035
     42  CD        19.8100   12.6710   50.1280 C.3    51  LYS51       0.0206
     43  CE        18.3030   12.5910   50.1520 C.3    51  LYS51       0.1093
     44  NZ        17.7190   13.9150   49.9220 N.3    51  LYS51      -0.1314
     45  N         27.2560   19.4310   59.6720 N.3    78  LEU78      -0.1245
     46  CA        27.4850   18.2440   58.8460 C.3    78  LEU78       0.1561
     47  C         28.2860   18.6100   57.6010 C.2    78  LEU78       0.2260
     48  O         27.8910   19.4880   56.8320 O.2    78  LEU78      -0.2867
     49  CB        26.1640   17.5690   58.4420 C.3    78  LEU78       0.0270
     50  CG        26.2990   16.1790   57.8000 C.3    78  LEU78       0.0019
     51  CD1       26.7800   15.1550   58.8120 C.3    78  LEU78       0.0001
     52  CD2       24.9990   15.7150   57.1640 C.3    78  LEU78       0.0001
     53  N         28.1070   11.7770   52.5000 N.3    90  LEU90      -0.1231
     54  CA        28.1090   12.4970   53.7710 C.3    90  LEU90       0.1678
     55  C         28.7060   11.6370   54.8770 C.2    90  LEU90       0.2434
     56  O         28.5760   10.4120   54.8390 O.2    90  LEU90      -0.2733
     57  CB        26.6780   12.8930   54.1490 C.3    90  LEU90       0.0284
     58  CG        25.8610   13.7230   53.1510 C.3    90  LEU90       0.0019
     59  CD1       24.3710   13.6310   53.4700 C.3    90  LEU90       0.0001
     60  CD2       26.3290   15.1850   53.1000 C.3    90  LEU90       0.0001
     61  N         29.3560   12.2710   55.8780 N.am   91  PRO91      -0.2718
     62  CA        29.8160   11.4810   57.0140 C.3    91  PRO91       0.1535
     63  C         28.6610   10.7030   57.6350 C.2    91  PRO91       0.2599
     64  O         27.5370   11.2000   57.6940 O.2    91  PRO91      -0.2715
     65  CB        30.3560   12.5280   58.0010 C.3    91  PRO91       0.0310
     66  CG        29.9930   13.8550   57.4520 C.3    91  PRO91       0.0237
     67  CD        29.7070   13.6970   56.0020 C.3    91  PRO91       0.0939
     68  N         28.9410    9.4760   58.0590 N.am   92  TYR92      -0.1960
     69  CA        27.9450    8.6420   58.7080 C.3    92  TYR92       0.1771
     70  C         27.6700    9.1310   60.1280 C.2    92  TYR92       0.2619
     71  O         28.5940    9.2950   60.9310 O.2    92  TYR92      -0.2715
     72  CB        28.4090    7.1890   58.7280 C.3    92  TYR92       0.0574
     73  CG        27.3950    6.2310   59.2890 C.ar   92  TYR92      -0.0198
     74  CD1       27.6230    5.5820   60.4980 C.ar   92  TYR92      -0.0009
     75  CD2       26.2050    5.9760   58.6180 C.ar   92  TYR92      -0.0009
     76  CE1       26.6990    4.6940   61.0240 C.ar   92  TYR92       0.0417
     77  CE2       25.2720    5.0930   59.1320 C.ar   92  TYR92       0.0417
     78  CZ        25.5290    4.4530   60.3360 C.ar   92  TYR92       0.1957
     79  OH        24.6110    3.5750   60.8580 O.3    92  TYR92      -0.2866
     80  N         26.3940    9.3650   60.4200 N.am   93  MET93      -0.1963
     81  CA        25.9610    9.8330   61.7350 C.3    93  MET93       0.1736
     82  C         25.2710    8.6980   62.4820 C.2    93  MET93       0.2616
     83  O         24.0730    8.4930   62.3450 O.2    93  MET93      -0.2715
     84  CB        25.0420   11.0490   61.5930 C.3    93  MET93       0.0427
     85  CG        25.7130   12.2410   60.9220 C.3    93  MET93       0.0599
     86  SD        26.7940   13.1170   62.0640 S.3    93  MET93      -0.1393
     87  CE        28.3700   13.0160   61.2370 C.3    93  MET93       0.0692
     88  N         26.0520    7.9780   63.2810 N.am   94  LYS94      -0.1977
     89  CA        25.6280    6.7380   63.9460 C.3    94  LYS94       0.1596
     90  C         24.2830    6.8080   64.6720 C.2    94  LYS94       0.2287
     91  O         23.4770    5.8840   64.5720 O.2    94  LYS94      -0.2864
     92  CB        26.7290    6.2820   64.9140 C.3    94  LYS94       0.0298
     93  CG        26.4090    5.0690   65.7840 C.3    94  LYS94       0.0038
     94  CD        27.6710    4.6150   66.4950 C.3    94  LYS94       0.0206
     95  CE        27.3770    3.9320   67.8190 C.3    94  LYS94       0.1093
     96  NZ        28.6060    3.8760   68.6780 N.3    94  LYS94      -0.1314
     97  N         21.6960    8.9380   64.3240 N.3    96  GLY96      -0.1210
     98  CA        20.5760    9.4910   63.5660 C.3    96  GLY96       0.1956
     99  C         20.2570   10.9360   63.8930 C.2    96  GLY96       0.2611
    100  O         21.1190   11.6930   64.3380 O.2    96  GLY96      -0.2717
    101  N         19.0040   11.3120   63.6670 N.am   97  ASP97      -0.1973
    102  CA        18.5600   12.6750   63.8980 C.3    97  ASP97       0.1709
    103  C         18.3030   12.9500   65.3810 C.2    97  ASP97       0.2293
    104  O         17.9590   12.0440   66.1480 O.2    97  ASP97      -0.2864
    105  CB        17.3200   12.9920   63.0580 C.3    97  ASP97       0.1436
    106  CG        16.1220   12.1720   63.4630 C.2    97  ASP97       0.3671
    107  OD1       16.1410   10.9420   63.2490 O.co2  97  ASP97      -0.2456
    108  OD2       15.1590   12.7630   63.9950 O.co2  97  ASP97      -0.2456
    109  N         14.5840   11.9490   66.9920 N.3   100  ASN100     -0.1240
    110  CA        14.4190   10.5310   67.2910 C.3   100  ASN100      0.1653
    111  C         15.2890   10.0860   68.4720 C.2   100  ASN100      0.2266
    112  O         14.8370    9.3200   69.3190 O.2   100  ASN100     -0.2867
    113  CB        14.6550    9.6670   66.0470 C.3   100  ASN100      0.1155
    114  CG        13.4420    9.6320   65.1210 C.2   100  ASN100      0.2627
    115  OD1       13.5560    9.8690   63.9130 O.2   100  ASN100     -0.2716
    116  ND2       12.2740    9.3470   65.6870 N.am  100  ASN100     -0.0877
    117  N         14.5670   17.2910   63.9700 N.3   141  ARG141     -0.1231
    118  CA        14.6260   16.2670   62.9090 C.3   141  ARG141      0.1694
    119  C         15.7790   16.5070   61.9220 C.2   141  ARG141      0.2592
    120  O         16.2680   15.5760   61.2950 O.2   141  ARG141     -0.2718
    121  CB        13.2880   16.1850   62.1440 C.3   141  ARG141      0.0321
    122  CG        12.9120   17.4640   61.3930 C.3   141  ARG141      0.0489
    123  CD        11.6280   17.3560   60.5640 C.3   141  ARG141      0.2205
    124  NE        11.3290   18.6650   59.9790 N.pl3 141  ARG141     -0.0865
    125  CZ        10.6470   19.6220   60.6030 C.cat 141  ARG141      0.5346
    126  NH1       10.4490   20.7950   60.0200 N.pl3 141  ARG141      0.1354
    127  NH2       10.1520   19.4020   61.8150 N.pl3 141  ARG141      0.1354
    128  N         16.2140   17.7590   61.8020 N.am  142  ASN142     -0.1974
    129  CA        17.1920   18.1480   60.7860 C.3   142  ASN142      0.1688
    130  C         18.6130   18.3710   61.3060 C.2   142  ASN142      0.2292
    131  O         19.4590   18.9420   60.6080 O.2   142  ASN142     -0.2864
    132  CB        16.6810   19.3610   60.0090 C.3   142  ASN142      0.1181
    133  CG        15.4720   19.0270   59.1500 C.2   142  ASN142      0.2629
    134  OD1       15.3600   17.9200   58.6160 O.2   142  ASN142     -0.2716
    135  ND2       14.5620   19.9830   59.0120 N.am  142  ASN142     -0.0877
    136  N         21.7560   16.1010   63.4440 N.3   144  MET144     -0.1245
    137  CA        22.1280   14.6930   63.6410 C.3   144  MET144      0.1570
    138  C         23.2730   14.5110   64.6380 C.2   144  MET144      0.2261
    139  O         24.0030   15.4540   64.9140 O.2   144  MET144     -0.2867
    140  CB        22.4740   14.0450   62.2950 C.3   144  MET144      0.0387
    141  CG        21.3430   14.0980   61.2610 C.3   144  MET144      0.0595
    142  SD        21.6390   13.0260   59.8500 S.3   144  MET144     -0.1393
    143  CE        20.9480   11.4890   60.4480 C.3   144  MET144      0.0692
    144  N         22.3370   19.7490   60.0970 N.3   154  ALA154     -0.1231
    145  CA        22.3610   19.0170   58.8350 C.3   154  ALA154      0.1694
    146  C         21.2520   19.5340   57.9150 C.2   154  ALA154      0.2592
    147  O         20.8330   20.6920   58.0400 O.2   154  ALA154     -0.2718
    148  CB        22.2270   17.5250   59.0970 C.3   154  ALA154      0.0304
    149  N         20.8060   18.6940   56.9800 N.am  155  ASP155     -0.1974
    150  CA        19.6900   19.0200   56.0870 C.3   155  ASP155      0.1709
    151  C         19.8690   20.3570   55.3600 C.2   155  ASP155      0.2293
    152  O         18.9720   21.1970   55.3510 O.2   155  ASP155     -0.2864
    153  CB        18.3610   18.9840   56.8610 C.3   155  ASP155      0.1436
    154  CG        17.1590   19.3050   55.9860 C.2   155  ASP155      0.3671
    155  OD1       16.9940   18.6410   54.9430 O.co2 155  ASP155     -0.2456
    156  OD2       16.3870   20.2280   56.3430 O.co2 155  ASP155     -0.2456
    157  N         22.3290   17.9920   50.8960 N.3   159  ALA159     -0.1245
    158  CA        21.6530   17.1160   51.8600 C.3   159  ALA159      0.1562
    159  C         20.1940   17.5160   52.1370 C.2   159  ALA159      0.2260
    160  O         19.4490   16.7600   52.7670 O.2   159  ALA159     -0.2867
    161  CB        22.4460   17.0390   53.1630 C.3   159  ALA159      0.0290
    162  N         12.6460   15.0030   55.3580 N.3   163  TYR163     -0.1227
    163  CA        12.8840   13.6690   55.9030 C.3   163  TYR163      0.1736
    164  C         11.7540   13.1980   56.8270 C.2   163  TYR163      0.2595
    165  O         11.7110   12.0320   57.2090 O.2   163  TYR163     -0.2718
    166  CB        14.2440   13.6020   56.6100 C.3   163  TYR163      0.0548
    167  CG        15.4470   13.7930   55.7000 C.ar  163  TYR163     -0.0200
    168  CD1       15.9150   12.7530   54.8910 C.ar  163  TYR163     -0.0009
    169  CD2       16.1270   15.0100   55.6620 C.ar  163  TYR163     -0.0009
    170  CE1       17.0230   12.9240   54.0590 C.ar  163  TYR163      0.0417
    171  CE2       17.2350   15.1930   54.8330 C.ar  163  TYR163      0.0417
    172  CZ        17.6770   14.1470   54.0390 C.ar  163  TYR163      0.1957
    173  OH        18.7740   14.3260   53.2250 O.3   163  TYR163     -0.2866
    174  N         10.8490   14.1090   57.1830 N.am  164  ASP164     -0.1974
    175  CA         9.6020   13.7480   57.8700 C.3   164  ASP164      0.1709
    176  C          8.4590   14.5770   57.2850 C.2   164  ASP164      0.2293
    177  O          8.1770   15.6920   57.7420 O.2   164  ASP164     -0.2864
    178  CB         9.7070   13.9410   59.3940 C.3   164  ASP164      0.1436
    179  CG         8.5670   13.2520   60.1630 C.2   164  ASP164      0.3671
    180  OD1        7.4930   12.9860   59.5740 O.co2 164  ASP164     -0.2456
    181  OD2        8.7450   12.9760   61.3680 O.co2 164  ASP164     -0.2456
@<TRIPOS>BOND
     1    39    38    2
     2    38    37    1
     3    37    36    1
     4    37    40    1
     5    44    43    1
     6    40    41    1
     7    42    43    1
     8    42    41    1
     9   157   158    1
    10    22    21    1
    11    24    25    1
    12   158   159    1
    13   158   161    1
    14    25    26    1
    15    25    28    1
    16   159   160    2
    17    23    21    1
    18    21    20    2
    19    26    27    2
    20    53    54    1
    21    34    33    2
    22    33    32    1
    23    60    58    1
    24    58    59    1
    25    58    57    1
    26    30    28    1
    27   173   172    1
    28    28    29    1
    29    12    11    2
    30    15    14    1
    31    15    16    2
    32    20    19    1
    33    14    17    1
    34    14    13    1
    35    17    18    1
    36    19    18    1
    37    54    57    1
    38    54    55    1
    39   172   170   ar
    40   172   171   ar
    41   170   168   ar
    42    32    31    1
    43    32    35    1
    44    11    13   am
    45    11    10    1
    46   171   169   ar
    47    56    55    2
    48    55    61   am
    49   168   167   ar
    50   155   154   ar
    51     1     2    1
    52   152   151    2
    53   162   163    1
    54   151   150    1
    55     9    10    1
    56     9     3   am
    57   169   167   ar
    58   167   166    1
    59    61    67    1
    60    61    62    1
    61     6     8    1
    62     6     5    1
    63   163   166    1
    64   163   164    1
    65   154   156   ar
    66   154   153    1
    67    67    66    1
    68   150   153    1
    69   150   149    1
    70     2     3    1
    71     2     5    1
    72     3     4    2
    73   164   174   am
    74   164   165    2
    75    48    47    2
    76     5     7    1
    77   149   146   am
    78    62    63    1
    79    62    65    1
    80    52    50    1
    81   174   175    1
    82   176   177    2
    83   176   175    1
    84    66    65    1
    85    47    46    1
    86    63    64    2
    87    63    68   am
    88    50    49    1
    89    50    51    1
    90   175   178    1
    91   146   147    2
    92   146   145    1
    93    68    69    1
    94    49    46    1
    95   134   133    2
    96    75    77   ar
    97    75    73   ar
    98    69    72    1
    99    69    70    1
   100    72    73    1
   101   145   148    1
   102   145   144    1
   103    46    45    1
   104   135   133   am
   105    77    78   ar
   106   133   132    1
   107    73    74   ar
   108   178   179    1
   109   180   179   ar
   110   142   143    1
   111   142   141    1
   112   124   123    1
   113   124   125    2
   114   132   129    1
   115   126   125    1
   116    70    80   am
   117    70    71    2
   118   179   181   ar
   119    78    79    1
   120    78    76   ar
   121    80    81    1
   122    74    76   ar
   123   123   122    1
   124   125   127    1
   125   131   130    2
   126   129   130    1
   127   129   128    1
   128    85    84    1
   129    85    86    1
   130    87    86    1
   131   141   140    1
   132   120   119    2
   133   122   121    1
   134    84    81    1
   135    81    82    1
   136   128   119   am
   137   119   118    1
   138   121   118    1
   139   140   137    1
   140    83    82    2
   141    82    88   am
   142   118   117    1
   143   105   106    1
   144   105   102    1
   145   107   106   ar
   146    88    89    1
   147   136   137    1
   148   106   108   ar
   149    98    99    1
   150    98    97    1
   151   137   138    1
   152   101    99   am
   153   101   102    1
   154    99   100    2
   155   102   103    1
   156   115   114    2
   157    89    90    1
   158    89    92    1
   159    91    90    2
   160   138   139    2
   161    92    93    1
   162   114   116   am
   163   114   113    1
   164   103   104    2
   165    93    94    1
   166   113   110    1
   167    94    95    1
   168   109   110    1
   169   110   111    1
   170    95    96    1
   171   111   112    2
