@<TRIPOS>MOLECULE
tmp/3cdaA01.pdb
 116 109 0 0 0
SMALL
GASTEIGER

@<TRIPOS>ATOM
      1  N          8.8720   15.2460  -11.8990 N.3   119  GLU119     -0.1231
      2  CA         8.5250   13.8910  -12.3160 C.3   119  GLU119      0.1699
      3  C          7.4420   13.9370  -13.3930 C.2   119  GLU119      0.2593
      4  O          6.3420   14.4450  -13.1580 O.2   119  GLU119     -0.2718
      5  CB         8.0510   13.0480  -11.1390 C.3   119  GLU119      0.0402
      6  CG         7.5470   11.6800  -11.5770 C.3   119  GLU119      0.1161
      7  CD         7.4730   10.6850  -10.4500 C.2   119  GLU119      0.3649
      8  OE1        7.5640   11.1120   -9.2810 O.co2 119  GLU119     -0.2457
      9  OE2        7.3060    9.4790  -10.7430 O.co2 119  GLU119     -0.2457
     10  N          7.7480   13.3890  -14.5640 N.am  120  GLY120     -0.1942
     11  CA         6.8020   13.3770  -15.6680 C.3   120  GLY120      0.2014
     12  C          5.4920   12.7110  -15.2840 C.2   120  GLY120      0.2639
     13  O          5.4950   11.6770  -14.6080 O.2   120  GLY120     -0.2714
     14  N          4.3820   13.3350  -15.6790 N.am  121  CYS121     -0.1953
     15  CA         3.0310   12.7710  -15.5650 C.3   121  CYS121      0.1843
     16  C          2.3540   12.9130  -14.2090 C.2   121  CYS121      0.2625
     17  O          1.1550   12.6440  -14.1010 O.2   121  CYS121     -0.2714
     18  CB         2.9940   11.2920  -15.9780 C.3   121  CYS121      0.0997
     19  SG         3.2670   11.0280  -17.7380 S.3   121  CYS121     -0.0797
     20  N          3.0920   13.3330  -13.1860 N.am  122  LEU122     -0.1977
     21  CA         2.5520   13.3850  -11.8340 C.3   122  LEU122      0.1596
     22  C          1.3520   14.3180  -11.7450 C.2   122  LEU122      0.2287
     23  O          0.3270   13.9440  -11.1760 O.2   122  LEU122     -0.2864
     24  CB         3.6240   13.8260  -10.8320 C.3   122  LEU122      0.0297
     25  CG         3.1630   13.9950   -9.3790 C.3   122  LEU122      0.0022
     26  CD1        2.5220   12.7060   -8.8500 C.3   122  LEU122      0.0001
     27  CD2        4.3180   14.4280   -8.5040 C.3   122  LEU122      0.0001
     28  N         -0.4760   15.5140  -14.3090 N.3   124  ALA124     -0.1231
     29  CA        -1.5250   14.9870  -15.1840 C.3   124  ALA124      0.1694
     30  C         -2.3290   13.8740  -14.4820 C.2   124  ALA124      0.2592
     31  O         -3.5580   13.8970  -14.4860 O.2   124  ALA124     -0.2718
     32  CB        -0.9310   14.4800  -16.4970 C.3   124  ALA124      0.0304
     33  N         -1.6240   12.9380  -13.8480 N.am  125  SER125     -0.1952
     34  CA        -2.2550   11.8350  -13.1110 C.3   125  SER125      0.1924
     35  C         -3.0970   12.3410  -11.9470 C.2   125  SER125      0.2314
     36  O         -4.2310   11.8980  -11.7450 O.2   125  SER125     -0.2863
     37  CB        -1.1910   10.8830  -12.5750 C.3   125  SER125      0.2116
     38  OG        -1.7630    9.7450  -11.9590 O.3   125  SER125     -0.2180
     39  N         -6.3080   13.9300  -13.1090 N.3   128  ARG128     -0.1245
     40  CA        -7.3490   12.9520  -13.4350 C.3   128  ARG128      0.1563
     41  C         -8.0770   12.4860  -12.1760 C.2   128  ARG128      0.2260
     42  O         -9.2960   12.3080  -12.1870 O.2   128  ARG128     -0.2867
     43  CB        -6.7600   11.7450  -14.1700 C.3   128  ARG128      0.0307
     44  CG        -7.8100   10.7320  -14.6100 C.3   128  ARG128      0.0489
     45  CD        -7.2760    9.5420  -15.3690 C.3   128  ARG128      0.2205
     46  NE        -6.4060    8.6900  -14.5510 N.pl3 128  ARG128     -0.0865
     47  CZ        -6.1410    7.4090  -14.8130 C.cat 128  ARG128      0.5346
     48  NH1       -6.6780    6.8050  -15.8730 N.pl3 128  ARG128      0.1354
     49  NH2       -5.3330    6.7220  -14.0090 N.pl3 128  ARG128      0.1354
     50  N         -1.6870   -4.2690   -2.2720 N.3   295  LYS295     -0.1245
     51  CA        -0.5410   -3.3740   -2.4090 C.3   295  LYS295      0.1561
     52  C         -0.3720   -2.5400   -1.1440 C.2   295  LYS295      0.2260
     53  O          0.6320   -2.6600   -0.4520 O.2   295  LYS295     -0.2867
     54  CB        -0.7100   -2.4510   -3.6230 C.3   295  LYS295      0.0271
     55  CG         0.3210   -1.3450   -3.7720 C.3   295  LYS295      0.0035
     56  CD        -0.1090   -0.3500   -4.8580 C.3   295  LYS295      0.0206
     57  CE         0.8290    0.8300   -4.9360 C.3   295  LYS295      0.1093
     58  NZ         2.1870    0.4170   -5.3860 N.3   295  LYS295     -0.1314
     59  N          0.0930    4.5850   -1.8530 N.3   311  ALA311     -0.1231
     60  CA         0.7740    4.3940   -3.1280 C.3   311  ALA311      0.1694
     61  C          1.8920    5.4110   -3.3100 C.2   311  ALA311      0.2592
     62  O          3.0460    5.0410   -3.4840 O.2   311  ALA311     -0.2718
     63  CB        -0.2310    4.4870   -4.2690 C.3   311  ALA311      0.0304
     64  N          1.5500    6.6950   -3.2560 N.am  312  HIS312     -0.1976
     65  CA         2.5280    7.7620   -3.4530 C.3   312  HIS312      0.1656
     66  C          2.1260    9.0960   -2.8340 C.2   312  HIS312      0.2291
     67  O          2.3600   10.1430   -3.4170 O.2   312  HIS312     -0.2864
     68  CB         2.8700    7.9320   -4.9460 C.3   312  HIS312      0.0771
     69  CG         1.7600    8.4930   -5.7840 C.ar  312  HIS312      0.0820
     70  ND1        1.9960    9.1720   -6.9610 N.ar  312  HIS312     -0.2267
     71  CD2        0.4120    8.4650   -5.6310 C.ar  312  HIS312      0.1154
     72  CE1        0.8440    9.5390   -7.4960 C.ar  312  HIS312      0.1986
     73  NE2       -0.1330    9.1240   -6.7090 N.ar  312  HIS312     -0.2212
     74  N          4.6970   11.7890   -3.1830 N.3   315  ASN315     -0.1240
     75  CA         4.7660   12.5610   -4.4230 C.3   315  ASN315      0.1653
     76  C          3.9800   13.8600   -4.3570 C.2   315  ASN315      0.2266
     77  O          4.4630   14.9110   -4.7650 O.2   315  ASN315     -0.2867
     78  CB         4.2340   11.7470   -5.6170 C.3   315  ASN315      0.1155
     79  CG         5.2940   10.9150   -6.2800 C.2   315  ASN315      0.2627
     80  OD1        6.4980   11.1520   -6.1130 O.2   315  ASN315     -0.2716
     81  ND2        4.8560    9.9340   -7.0670 N.am  315  ASN315     -0.0877
     82  N         -3.2070    6.8870   -9.6620 N.3   413  LEU413     -0.1245
     83  CA        -2.1090    5.9220   -9.7510 C.3   413  LEU413      0.1561
     84  C         -2.5800    4.4940   -9.5000 C.2   413  LEU413      0.2260
     85  O         -2.1230    3.5520  -10.1490 O.2   413  LEU413     -0.2867
     86  CB        -1.0180    6.2650   -8.7370 C.3   413  LEU413      0.0270
     87  CG         0.1680    5.3070   -8.6580 C.3   413  LEU413      0.0019
     88  CD1        0.8100    5.1390  -10.0170 C.3   413  LEU413      0.0001
     89  CD2        1.1970    5.7840   -7.6430 C.3   413  LEU413      0.0001
     90  N         -4.1930    3.3150  -12.6780 N.3   416  ALA416     -0.1231
     91  CA        -3.1510    3.0010  -13.6530 C.3   416  ALA416      0.1694
     92  C         -2.5650    1.6130  -13.4010 C.2   416  ALA416      0.2591
     93  O         -2.4820    0.8040  -14.3150 O.2   416  ALA416     -0.2718
     94  CB        -2.0510    4.0560  -13.6110 C.3   416  ALA416      0.0304
     95  N         -2.1730    1.3350  -12.1570 N.am  417  LEU417     -0.1980
     96  CA        -1.6070    0.0310  -11.7830 C.3   417  LEU417      0.1596
     97  C         -2.6250   -1.1140  -11.8710 C.2   417  LEU417      0.2287
     98  O         -2.2700   -2.2480  -12.1900 O.2   417  LEU417     -0.2864
     99  CB        -1.0350    0.0790  -10.3580 C.3   417  LEU417      0.0297
    100  CG         0.1440    1.0250  -10.1010 C.3   417  LEU417      0.0022
    101  CD1        0.3140    1.3040   -8.6070 C.3   417  LEU417      0.0001
    102  CD2        1.4110    0.4530  -10.6760 C.3   417  LEU417      0.0001
    103  N         -3.0110   -1.9380  -15.4980 N.3   420  GLY420     -0.1210
    104  CA        -1.7790   -2.5470  -15.9730 C.3   420  GLY420      0.1956
    105  C         -1.3880   -2.0940  -17.3650 C.2   420  GLY420      0.2611
    106  O         -1.0390   -2.9310  -18.1990 O.2   420  GLY420     -0.2717
    107  N         -1.4430   -0.7750  -17.5870 N.am  421  HIS421     -0.1975
    108  CA        -1.2390   -0.1070  -18.8900 C.3   421  HIS421      0.1656
    109  C         -2.5430   -0.0050  -19.7220 C.2   421  HIS421      0.2291
    110  O         -2.6500    0.8320  -20.6220 O.2   421  HIS421     -0.2864
    111  CB        -0.0990   -0.7610  -19.7140 C.3   421  HIS421      0.0771
    112  CG         1.0420    0.1630  -20.0290 C.ar  421  HIS421      0.0820
    113  ND1        1.6590    0.1890  -21.2630 N.ar  421  HIS421     -0.2267
    114  CD2        1.6910    1.0760  -19.2660 C.ar  421  HIS421      0.1154
    115  CE1        2.6260    1.0910  -21.2530 C.ar  421  HIS421      0.1986
    116  NE2        2.6690    1.6410  -20.0520 N.ar  421  HIS421     -0.2212
@<TRIPOS>BOND
     1   113   115   ar
     2   113   112   ar
     3   115   116   ar
     4   110   109    2
     5   116   114   ar
     6   112   111    1
     7   112   114   ar
     8   109   108    1
     9   111   108    1
    10   108   107    1
    11   106   105    2
    12    19    18    1
    13   107   105   am
    14   105   104    1
    15    32    29    1
    16    18    15    1
    17   104   103    1
    18    48    47    1
    19    14    15    1
    20    14    12   am
    21    11    12    1
    22    11    10    1
    23    15    16    1
    24    45    44    1
    25    45    46    1
    26    12    13    2
    27    29    30    1
    28    29    28    1
    29    47    46    2
    30    47    49    1
    31    44    43    1
    32    10     3   am
    33    31    30    2
    34    30    33   am
    35    93    92    2
    36    16    17    2
    37    16    20   am
    38    43    40    1
    39    33    34    1
    40    91    94    1
    41    91    92    1
    42    91    90    1
    43    40    39    1
    44    40    41    1
    45    92    95   am
    46     3     4    2
    47     3     2    1
    48    20    21    1
    49    34    37    1
    50    34    35    1
    51    37    38    1
    52     2     1    1
    53     2     5    1
    54    98    97    2
    55    42    41    2
    56    95    96    1
    57    35    36    2
    58    97    96    1
    59    21    22    1
    60    21    24    1
    61    96    99    1
    62    22    23    2
    63     6     5    1
    64     6     7    1
    65    24    25    1
    66     9     7   ar
    67   102   100    1
    68     7     8   ar
    69    99   100    1
    70    85    84    2
    71   100   101    1
    72    88    87    1
    73    83    82    1
    74    83    84    1
    75    83    86    1
    76    25    26    1
    77    25    27    1
    78    86    87    1
    79    87    89    1
    80    72    70   ar
    81    72    73   ar
    82    81    79   am
    83    70    69   ar
    84    73    71   ar
    85    79    80    2
    86    79    78    1
    87    69    71   ar
    88    69    68    1
    89    78    75    1
    90    58    57    1
    91    68    65    1
    92    57    56    1
    93    56    55    1
    94    77    76    2
    95    75    76    1
    96    75    74    1
    97    63    60    1
    98    55    54    1
    99    54    51    1
   100    62    61    2
   101    65    64    1
   102    65    66    1
   103    67    66    2
   104    61    64   am
   105    61    60    1
   106    60    59    1
   107    51    50    1
   108    51    52    1
   109    52    53    2
