@<TRIPOS>MOLECULE
tmp/3cdaA00.pdb
 95 87 0 0 0
SMALL
GASTEIGER

@<TRIPOS>ATOM
      1  N          7.5160   19.1940   20.1270 N.3   150  ARG150     -0.1245
      2  CA         8.9530   19.1580   20.3080 C.3   150  ARG150      0.1563
      3  C          9.2240   18.2490   21.5030 C.2   150  ARG150      0.2260
      4  O          8.5690   18.3650   22.5310 O.2   150  ARG150     -0.2867
      5  CB         9.4830   20.5790   20.5110 C.3   150  ARG150      0.0307
      6  CG        10.9720   20.7000   20.6650 C.3   150  ARG150      0.0489
      7  CD        11.7570   20.0370   19.5740 C.3   150  ARG150      0.2205
      8  NE        12.1030   20.9400   18.4870 N.pl3 150  ARG150     -0.0865
      9  CZ        12.6390   20.5510   17.3360 C.cat 150  ARG150      0.5346
     10  NH1       12.8660   19.2670   17.0910 N.pl3 150  ARG150      0.1354
     11  NH2       12.9440   21.4580   16.4250 N.pl3 150  ARG150      0.1354
     12  N          7.6330   25.3990   14.7360 N.3   217  MET217     -0.1230
     13  CA         8.8240   24.8070   15.3660 C.3   217  MET217      0.1702
     14  C          9.5460   25.7810   16.2860 C.2   217  MET217      0.2592
     15  O          9.9180   25.4210   17.4000 O.2   217  MET217     -0.2718
     16  CB         9.8260   24.3070   14.3230 C.3   217  MET217      0.0401
     17  CG         9.3400   23.1440   13.4810 C.3   217  MET217      0.0596
     18  SD         9.3230   21.4870   14.2100 S.3   217  MET217     -0.1393
     19  CE        10.9480   21.2350   14.4550 C.3   217  MET217      0.0692
     20  N          9.7560   27.0040   15.8120 N.am  218  ASN218     -0.1974
     21  CA        10.4960   28.0100   16.5760 C.3   218  ASN218      0.1688
     22  C          9.7290   28.4520   17.8230 C.2   218  ASN218      0.2292
     23  O         10.3110   28.6140   18.9030 O.2   218  ASN218     -0.2864
     24  CB        10.8270   29.2200   15.6960 C.3   218  ASN218      0.1181
     25  CG        11.8100   28.8830   14.5880 C.2   218  ASN218      0.2629
     26  OD1       12.9940   28.6290   14.8440 O.2   218  ASN218     -0.2716
     27  ND2       11.3260   28.8750   13.3490 N.am  218  ASN218     -0.0877
     28  N          9.7000   25.4760   20.4100 N.3   221  SER221     -0.1217
     29  CA        11.0170   25.3460   21.0380 C.3   221  SER221      0.1889
     30  C         11.2160   26.3890   22.1310 C.2   221  SER221      0.2288
     31  O         11.8000   26.0950   23.1680 O.2   221  SER221     -0.2866
     32  CB        12.1400   25.4750   20.0020 C.3   221  SER221      0.2089
     33  OG        12.2660   24.2930   19.2330 O.3   221  SER221     -0.2183
     34  N         11.6170   25.6170   26.1400 N.3   225  GLU225     -0.1245
     35  CA        12.7670   26.0680   26.9220 C.3   225  GLU225      0.1567
     36  C         12.3380   26.7290   28.2350 C.2   225  GLU225      0.2260
     37  O         12.9180   26.4540   29.2810 O.2   225  GLU225     -0.2867
     38  CB        13.6610   27.0130   26.1000 C.3   225  GLU225      0.0388
     39  CG        14.7900   26.3000   25.3550 C.3   225  GLU225      0.1160
     40  CD        15.4810   27.1900   24.3350 C.2   225  GLU225      0.3649
     41  OE1       15.8260   28.3440   24.6850 O.co2 225  GLU225     -0.2457
     42  OE2       15.6850   26.7370   23.1860 O.co2 225  GLU225     -0.2457
     43  N         17.3070   19.8660   23.6310 N.3   243  VAL243     -0.1231
     44  CA        15.9880   20.4610   23.4590 C.3   243  VAL243      0.1692
     45  C         15.1160   19.6410   22.4970 C.2   243  VAL243      0.2592
     46  O         13.8870   19.7370   22.5240 O.2   243  VAL243     -0.2718
     47  CB        16.0820   21.9440   23.0250 C.3   243  VAL243      0.0266
     48  CG1       16.7790   22.0970   21.6700 C.3   243  VAL243      0.0020
     49  CG2       14.6950   22.5790   22.9890 C.3   243  VAL243      0.0020
     50  N         15.7560   18.8380   21.6560 N.am  244  SER244     -0.1952
     51  CA        15.0730   17.7600   20.9420 C.3   244  SER244      0.1924
     52  C         15.8240   16.4600   21.1980 C.2   244  SER244      0.2314
     53  O         17.0110   16.3500   20.8990 O.2   244  SER244     -0.2863
     54  CB        15.0040   18.0340   19.4390 C.3   244  SER244      0.2116
     55  OG        14.5970   16.8680   18.7330 O.3   244  SER244     -0.2180
     56  N         14.7260   13.5980   19.8070 N.3   246  ASN246     -0.1240
     57  CA        14.1350   12.7640   18.7470 C.3   246  ASN246      0.1653
     58  C         12.7950   12.1320   19.1200 C.2   246  ASN246      0.2266
     59  O         12.3770   11.1610   18.4940 O.2   246  ASN246     -0.2867
     60  CB        15.1260   11.6940   18.2520 C.3   246  ASN246      0.1155
     61  CG        16.0990   12.2330   17.2120 C.2   246  ASN246      0.2627
     62  OD1       16.0930   13.4260   16.8900 O.2   246  ASN246     -0.2716
     63  ND2       16.9480   11.3530   16.6900 N.am  246  ASN246     -0.0877
     64  N          9.9660   14.0020   19.1820 N.3   248  CYS248     -0.1235
     65  CA         8.9530   14.9390   18.6980 C.3   248  CYS248      0.1677
     66  C          7.8970   14.2910   17.7780 C.2   248  CYS248      0.2270
     67  O          6.7140   14.4930   18.0240 O.2   248  CYS248     -0.2867
     68  CB         9.5850   16.1690   18.0310 C.3   248  CYS248      0.0956
     69  SG        11.2710   16.5690   18.5740 S.3   248  CYS248     -0.0801
     70  N         10.7160   14.9380   14.6530 N.3   250  ASP250     -0.1225
     71  CA        10.8380   15.8170   13.4980 C.3   250  ASP250      0.1805
     72  C         11.7910   15.2700   12.4370 C.2   250  ASP250      0.2598
     73  O         12.9630   15.0430   12.7220 O.2   250  ASP250     -0.2718
     74  CB        11.3270   17.1780   13.9730 C.3   250  ASP250      0.1424
     75  CG        11.2190   18.2320   12.9110 C.2   250  ASP250      0.3668
     76  OD1       10.1770   18.2800   12.2210 O.co2 250  ASP250     -0.2456
     77  OD2       12.1430   19.0450   12.6870 O.co2 250  ASP250     -0.2456
     78  N         11.2760   15.0900   11.2170 N.am  251  LYS251     -0.1966
     79  CA        12.0590   14.7360   10.0200 C.3   251  LYS251      0.1728
     80  C         12.7510   13.3720   10.0450 C.2   251  LYS251      0.2616
     81  O         13.7350   13.1450    9.3210 O.2   251  LYS251     -0.2715
     82  CB        13.0740   15.8360    9.7100 C.3   251  LYS251      0.0311
     83  CG        12.4150   17.1180    9.2850 C.3   251  LYS251      0.0038
     84  CD        13.4070   18.2320    9.1970 C.3   251  LYS251      0.0206
     85  CE        12.7220   19.4830    8.7250 C.3   251  LYS251      0.1093
     86  NZ        13.5960   20.6520    8.7180 N.3   251  LYS251     -0.1314
     87  N         12.2640   12.4840   10.9010 N.am  252  LYS252     -0.1977
     88  CA        12.6320   11.0710   10.8710 C.3   252  LYS252      0.1596
     89  C         11.3380   10.2740   11.0020 C.2   252  LYS252      0.2287
     90  O         10.4290   10.7180   11.6860 O.2   252  LYS252     -0.2864
     91  CB        13.5340   10.7140   12.0480 C.3   252  LYS252      0.0298
     92  CG        14.9890   11.2070   11.9540 C.3   252  LYS252      0.0038
     93  CD        15.1570   12.6500   12.3900 C.3   252  LYS252      0.0206
     94  CE        14.8410   12.8540   13.8500 C.3   252  LYS252      0.1093
     95  NZ        15.3180   14.1840   14.2990 N.3   252  LYS252     -0.1314
@<TRIPOS>BOND
     1    86    85    1
     2    85    84    1
     3    84    83    1
     4    83    82    1
     5    81    80    2
     6    82    79    1
     7    79    80    1
     8    79    78    1
     9    80    87   am
    10    88    87    1
    11    88    89    1
    12    88    91    1
    13    89    90    2
    14    78    72   am
    15    92    91    1
    16    92    93    1
    17    76    75   ar
    18    93    94    1
    19    72    73    2
    20    72    71    1
    21    77    75   ar
    22    75    74    1
    23    27    25   am
    24    17    18    1
    25    17    16    1
    26    71    74    1
    27    71    70    1
    28    94    95    1
    29    18    19    1
    30    16    13    1
    31    25    26    2
    32    25    24    1
    33    12    13    1
    34    13    14    1
    35    24    21    1
    36    20    14   am
    37    20    21    1
    38    14    15    2
    39    11     9    1
    40    21    22    1
    41    63    61   am
    42    62    61    2
    43    10     9    1
    44    61    60    1
    45     9     8    2
    46    66    67    2
    47    66    65    1
    48    22    23    2
    49    68    69    1
    50    68    65    1
    51    60    57    1
    52     8     7    1
    53    59    58    2
    54    65    64    1
    55    55    54    1
    56    57    58    1
    57    57    56    1
    58    33    32    1
    59    54    51    1
    60     7     6    1
    61    32    29    1
    62     1     2    1
    63     2     5    1
    64     2     3    1
    65    28    29    1
    66     5     6    1
    67    53    52    2
    68    51    52    1
    69    51    50    1
    70    29    30    1
    71     3     4    2
    72    50    45   am
    73    48    47    1
    74    30    31    2
    75    45    46    2
    76    45    44    1
    77    49    47    1
    78    47    44    1
    79    42    40   ar
    80    44    43    1
    81    40    41   ar
    82    40    39    1
    83    39    38    1
    84    38    35    1
    85    34    35    1
    86    35    36    1
    87    36    37    2
