@<TRIPOS>MOLECULE
tmp/3cdbC01.pdb
 117 110 0 0 0
SMALL
GASTEIGER

@<TRIPOS>ATOM
      1  N         24.1440  -21.0000    3.9270 N.3   113  GLU113     -0.1231
      2  CA        25.1800  -20.0770    4.3670 C.3   113  GLU113      0.1699
      3  C         26.3950  -20.8830    4.8060 C.2   113  GLU113      0.2593
      4  O         26.3230  -21.6550    5.7630 O.2   113  GLU113     -0.2718
      5  CB        24.6770  -19.2230    5.5310 C.3   113  GLU113      0.0402
      6  CG        25.7570  -18.3780    6.1840 C.3   113  GLU113      0.1161
      7  CD        25.2100  -17.3210    7.1230 C.2   113  GLU113      0.3649
      8  OE1       24.0350  -17.4130    7.5370 O.co2 113  GLU113     -0.2457
      9  OE2       25.9700  -16.3910    7.4500 O.co2 113  GLU113     -0.2457
     10  N         27.5060  -20.6960    4.1030 N.am  114  GLY114     -0.1942
     11  CA        28.7290  -21.4250    4.3800 C.3   114  GLY114      0.2014
     12  C         29.2610  -21.1740    5.7760 C.2   114  GLY114      0.2639
     13  O         29.1650  -20.0580    6.2950 O.2   114  GLY114     -0.2714
     14  N         29.8130  -22.2330    6.3670 N.am  115  CYS115     -0.1953
     15  CA        30.4100  -22.2310    7.7040 C.3   115  CYS115      0.1843
     16  C         29.4330  -22.0940    8.8730 C.2   115  CYS115      0.2625
     17  O         29.8740  -22.0070   10.0130 O.2   115  CYS115     -0.2714
     18  CB        31.5010  -21.1620    7.8150 C.3   115  CYS115      0.0997
     19  SG        32.7910  -21.3220    6.5600 S.3   115  CYS115     -0.0797
     20  N         28.1240  -22.0860    8.6130 N.am  116  LEU116     -0.1977
     21  CA        27.1460  -21.9880    9.6950 C.3   116  LEU116      0.1596
     22  C         27.0900  -23.2860   10.4870 C.2   116  LEU116      0.2287
     23  O         27.0600  -23.2570   11.7140 O.2   116  LEU116     -0.2864
     24  CB        25.7530  -21.6470    9.1670 C.3   116  LEU116      0.0297
     25  CG        24.6230  -21.5570   10.2090 C.3   116  LEU116      0.0022
     26  CD1       24.9540  -20.5730   11.3250 C.3   116  LEU116      0.0001
     27  CD2       23.3110  -21.1740    9.5330 C.3   116  LEU116      0.0001
     28  N         30.5170  -23.7240   12.3180 N.3   119  SER119     -0.1217
     29  CA        30.6430  -22.7970   13.4360 C.3   119  SER119      0.1889
     30  C         29.8070  -23.2880   14.6110 C.2   119  SER119      0.2288
     31  O         30.2700  -23.3060   15.7470 O.2   119  SER119     -0.2866
     32  CB        30.2000  -21.3950   13.0310 C.3   119  SER119      0.2089
     33  OG        30.1620  -20.5420   14.1550 O.3   119  SER119     -0.2183
     34  N         31.3690  -26.2760   16.3320 N.3   122  ARG122     -0.1245
     35  CA        32.4600  -25.9310   17.2290 C.3   122  ARG122      0.1563
     36  C         31.9400  -25.4840   18.5940 C.2   122  ARG122      0.2260
     37  O         32.5610  -25.7690   19.6230 O.2   122  ARG122     -0.2867
     38  CB        33.3260  -24.8300   16.6240 C.3   122  ARG122      0.0307
     39  CG        34.5040  -24.4530   17.5020 C.3   122  ARG122      0.0489
     40  CD        35.3810  -23.3740   16.9270 C.3   122  ARG122      0.2205
     41  NE        34.7420  -22.0670   17.0130 N.pl3 122  ARG122     -0.0865
     42  CZ        35.3870  -20.9060   16.9560 C.cat 122  ARG122      0.5346
     43  NH1       36.7110  -20.8700   16.8300 N.pl3 122  ARG122      0.1354
     44  NH2       34.7030  -19.7700   17.0440 N.pl3 122  ARG122      0.1354
     45  N         27.9630   -5.6630   22.4190 N.3   289  LYS289     -0.1245
     46  CA        27.3300   -6.0270   21.1580 C.3   289  LYS289      0.1561
     47  C         25.8820   -6.3980   21.4390 C.2   289  LYS289      0.2260
     48  O         24.9660   -5.6980   21.0100 O.2   289  LYS289     -0.2867
     49  CB        28.0680   -7.1930   20.4910 C.3   289  LYS289      0.0271
     50  CG        27.4210   -7.7180   19.2230 C.3   289  LYS289      0.0035
     51  CD        28.0200   -9.0500   18.8120 C.3   289  LYS289      0.0206
     52  CE        27.1890   -9.7310   17.7420 C.3   289  LYS289      0.1093
     53  NZ        27.0670   -8.9110   16.5060 N.3   289  LYS289     -0.1314
     54  N         23.4340  -12.5700   18.9360 N.3   305  ALA305     -0.1231
     55  CA        24.2890  -12.4210   17.7580 C.3   305  ALA305      0.1694
     56  C         23.6000  -12.9300   16.4940 C.2   305  ALA305      0.2592
     57  O         23.4730  -12.1990   15.5140 O.2   305  ALA305     -0.2718
     58  CB        25.6110  -13.1430   17.9610 C.3   305  ALA305      0.0304
     59  N         23.1600  -14.1820   16.5090 N.am  306  HIS306     -0.1976
     60  CA        22.6090  -14.7920   15.3000 C.3   306  HIS306      0.1656
     61  C         21.7190  -16.0030   15.5800 C.2   306  HIS306      0.2291
     62  O         21.7260  -16.9730   14.8390 O.2   306  HIS306     -0.2864
     63  CB        23.7360  -15.1210   14.3010 C.3   306  HIS306      0.0771
     64  CG        24.5590  -16.3130   14.6740 C.ar  306  HIS306      0.0820
     65  ND1       24.7730  -17.3620   13.8080 N.ar  306  HIS306     -0.2267
     66  CD2       25.2250  -16.6220   15.8120 C.ar  306  HIS306      0.1154
     67  CE1       25.5230  -18.2700   14.3990 C.ar  306  HIS306      0.1986
     68  NE2       25.8170  -17.8460   15.6150 N.ar  306  HIS306     -0.2212
     69  N         19.8110  -17.5100   12.5640 N.3   309  ASN309     -0.1240
     70  CA        20.4910  -18.5040   11.7380 C.3   309  ASN309      0.1653
     71  C         20.2000  -19.9390   12.1620 C.2   309  ASN309      0.2266
     72  O         19.8660  -20.7780   11.3250 O.2   309  ASN309     -0.2867
     73  CB        22.0080  -18.2790   11.7540 C.3   309  ASN309      0.1155
     74  CG        22.4530  -17.2190   10.7770 C.2   309  ASN309      0.2627
     75  OD1       21.7470  -16.9080    9.8200 O.2   309  ASN309     -0.2716
     76  ND2       23.6350  -16.6580   11.0090 N.am  309  ASN309     -0.0877
     77  N         30.1050  -19.9090   19.6320 N.3   406  SER406     -0.1202
     78  CA        31.0640  -19.9860   18.5260 C.3   406  SER406      0.2020
     79  C         31.2420  -18.6500   17.8120 C.2   406  SER406      0.2618
     80  O         32.3570  -18.1520   17.7110 O.2   406  SER406     -0.2717
     81  CB        30.6550  -21.0680   17.5300 C.3   406  SER406      0.2103
     82  OG        31.7420  -21.4190   16.6890 O.3   406  SER406     -0.2182
     83  N         30.1560  -18.0520   17.3340 N.am  407  LEU407     -0.1979
     84  CA        30.2600  -16.7720   16.6280 C.3   407  LEU407      0.1596
     85  C         30.8470  -15.6600   17.5070 C.2   407  LEU407      0.2287
     86  O         31.6580  -14.8750   17.0380 O.2   407  LEU407     -0.2864
     87  CB        28.9030  -16.3310   16.0600 C.3   407  LEU407      0.0297
     88  CG        28.8990  -14.9580   15.3730 C.3   407  LEU407      0.0022
     89  CD1       29.8580  -14.9580   14.1930 C.3   407  LEU407      0.0001
     90  CD2       27.5020  -14.5740   14.9240 C.3   407  LEU407      0.0001
     91  N         34.5690  -16.0130   17.7030 N.3   410  ALA410     -0.1231
     92  CA        35.2140  -15.5770   16.4670 C.3   410  ALA410      0.1694
     93  C         35.2760  -14.0490   16.3700 C.2   410  ALA410      0.2591
     94  O         36.2560  -13.5030   15.8610 O.2   410  ALA410     -0.2718
     95  CB        34.5010  -16.1550   15.2560 C.3   410  ALA410      0.0304
     96  N         34.2420  -13.3680   16.8610 N.am  411  LEU411     -0.1980
     97  CA        34.1810  -11.9090   16.8030 C.3   411  LEU411      0.1596
     98  C         35.1440  -11.2870   17.8040 C.2   411  LEU411      0.2287
     99  O         35.7280  -10.2340   17.5310 O.2   411  LEU411     -0.2864
    100  CB        32.7570  -11.3970   17.0650 C.3   411  LEU411      0.0297
    101  CG        31.7240  -11.6760   15.9680 C.3   411  LEU411      0.0022
    102  CD1       30.3100  -11.4240   16.4860 C.3   411  LEU411      0.0001
    103  CD2       31.9880  -10.8520   14.7170 C.3   411  LEU411      0.0001
    104  N         38.8400  -11.6000   16.4830 N.3   414  GLY414     -0.1210
    105  CA        39.1700  -10.6600   15.4200 C.3   414  GLY414      0.1956
    106  C         39.6250  -11.3630   14.1530 C.2   414  GLY414      0.2611
    107  O         39.4200  -12.5740   14.0030 O.2   414  GLY414     -0.2717
    108  N         40.2450  -10.6020   13.2450 N.am  415  HIS415     -0.1975
    109  CA        40.7090  -11.1120   11.9420 C.3   415  HIS415      0.1656
    110  C         39.7720  -12.1650   11.3550 C.2   415  HIS415      0.2291
    111  O         39.7730  -12.4080   10.1450 O.2   415  HIS415     -0.2864
    112  CB        42.1530  -11.6590   12.0320 C.3   415  HIS415      0.0771
    113  CG        42.2830  -12.9340   12.8180 C.ar  415  HIS415      0.0820
    114  ND1       42.4380  -12.9540   14.1890 N.ar  415  HIS415     -0.2267
    115  CD2       42.2840  -14.2310   12.4230 C.ar  415  HIS415      0.1154
    116  CE1       42.5220  -14.2070   14.6060 C.ar  415  HIS415      0.1986
    117  NE2       42.4290  -15.0020   13.5540 N.ar  415  HIS415     -0.2212
@<TRIPOS>BOND
     1     1     2    1
     2    10    11    1
     3    10     3   am
     4     2     3    1
     5     2     5    1
     6    11    12    1
     7     3     4    2
     8     5     6    1
     9    12    13    2
    10    12    14   am
    11     6     7    1
    12    14    15    1
    13    19    18    1
    14     7     9   ar
    15     7     8   ar
    16    15    18    1
    17    15    16    1
    18    20    16   am
    19    20    21    1
    20    16    17    2
    21    24    21    1
    22    24    25    1
    23    27    25    1
    24    21    22    1
    25    75    74    2
    26   111   110    2
    27    25    26    1
    28    22    23    2
    29    74    76   am
    30    74    73    1
    31    72    71    2
    32   110   109    1
    33    70    73    1
    34    70    71    1
    35    70    69    1
    36   109   112    1
    37   109   108    1
    38   112   113    1
    39    28    29    1
    40   115   113   ar
    41   115   117   ar
    42   113   114   ar
    43    32    29    1
    44    32    33    1
    45   108   106   am
    46    29    30    1
    47   117   116   ar
    48    65    67   ar
    49    65    64   ar
    50   107   106    2
    51   106   105    1
    52   114   116   ar
    53    89    88    1
    54    63    64    1
    55    63    60    1
    56    67    68   ar
    57    30    31    2
    58    64    66   ar
    59   103   101    1
    60    62    61    2
    61    90    88    1
    62    95    92    1
    63    60    61    1
    64    60    59    1
    65    88    87    1
    66   105   104    1
    67    57    56    2
    68    68    66   ar
    69    94    93    2
    70   101   102    1
    71   101   100    1
    72    87    84    1
    73    34    35    1
    74    93    92    1
    75    93    96   am
    76    92    91    1
    77    56    59   am
    78    56    55    1
    79    53    52    1
    80    38    35    1
    81    38    39    1
    82    84    83    1
    83    84    85    1
    84    82    81    1
    85    97    96    1
    86    97   100    1
    87    97    98    1
    88    43    42    1
    89    40    41    1
    90    40    39    1
    91    42    41    2
    92    42    44    1
    93    86    85    2
    94    35    36    1
    95    83    79   am
    96    81    78    1
    97    99    98    2
    98    80    79    2
    99    52    51    1
   100    55    58    1
   101    55    54    1
   102    79    78    1
   103    78    77    1
   104    36    37    2
   105    51    50    1
   106    50    49    1
   107    49    46    1
   108    48    47    2
   109    46    47    1
   110    46    45    1
