@<TRIPOS>MOLECULE
tmp/3cdbC00.pdb
 95 87 0 0 0
SMALL
GASTEIGER

@<TRIPOS>ATOM
      1  N         -3.7050  -16.8440   20.1030 N.3   144  ARG144     -0.1245
      2  CA        -4.3740  -16.1460   19.0190 C.3   144  ARG144      0.1563
      3  C         -5.0650  -14.9400   19.6470 C.2   144  ARG144      0.2260
      4  O         -5.6980  -15.0600   20.6990 O.2   144  ARG144     -0.2867
      5  CB        -5.3630  -17.0700   18.3050 C.3   144  ARG144      0.0307
      6  CG        -6.0920  -16.4640   17.1110 C.3   144  ARG144      0.0489
      7  CD        -5.1870  -15.8810   16.0190 C.3   144  ARG144      0.2205
      8  NE        -4.7070  -16.8780   15.0570 N.pl3 144  ARG144     -0.0865
      9  CZ        -3.7090  -16.6780   14.1900 C.cat 144  ARG144      0.5346
     10  NH1       -3.0670  -15.5150   14.1440 N.pl3 144  ARG144      0.1354
     11  NH2       -3.3560  -17.6490   13.3540 N.pl3 144  ARG144      0.1354
     12  N         -1.7170  -23.6300   15.7600 N.3   211  MET211     -0.1230
     13  CA        -2.3910  -22.4620   15.1730 C.3   211  MET211      0.1702
     14  C         -3.8510  -22.7810   14.8100 C.2   211  MET211      0.2592
     15  O         -4.7520  -22.0480   15.2120 O.2   211  MET211     -0.2718
     16  CB        -1.5610  -21.8380   14.0020 C.3   211  MET211      0.0401
     17  CG        -0.3630  -21.1010   14.6310 C.3   211  MET211      0.0596
     18  SD        -0.4390  -19.3040   14.6330 S.3   211  MET211     -0.1393
     19  CE        -1.7630  -19.0460   15.8070 C.3   211  MET211      0.0692
     20  N         -4.0880  -23.8850   14.1050 N.am  212  ASN212     -0.1974
     21  CA        -5.4410  -24.2370   13.6670 C.3   212  ASN212      0.1688
     22  C         -6.3450  -24.5910   14.8390 C.2   212  ASN212      0.2292
     23  O         -7.5370  -24.2840   14.8330 O.2   212  ASN212     -0.2864
     24  CB        -5.4170  -25.4070   12.6750 C.3   212  ASN212      0.1181
     25  CG        -5.1060  -24.9620   11.2600 C.2   212  ASN212      0.2629
     26  OD1       -6.0130  -24.7660   10.4430 O.2   212  ASN212     -0.2716
     27  ND2       -3.8160  -24.7920   10.9610 N.am  212  ASN212     -0.0877
     28  N         -7.3940  -21.4780   16.9450 N.3   215  SER215     -0.1217
     29  CA        -8.3450  -20.6810   16.1620 C.3   215  SER215      0.1889
     30  C         -9.7540  -21.2770   16.1660 C.2   215  SER215      0.2288
     31  O        -10.7310  -20.5450   16.0440 O.2   215  SER215     -0.2866
     32  CB        -7.8740  -20.5310   14.7130 C.3   215  SER215      0.2089
     33  OG        -7.9240  -21.7750   14.0350 O.3   215  SER215     -0.2183
     34  N        -12.8700  -19.3250   17.9070 N.3   219  GLU219     -0.1245
     35  CA       -14.1170  -19.0310   17.2000 C.3   219  GLU219      0.1567
     36  C        -15.3460  -19.4690   17.9970 C.2   219  GLU219      0.2260
     37  O        -16.3580  -18.7740   18.0070 O.2   219  GLU219     -0.2867
     38  CB       -14.1180  -19.6700   15.8030 C.3   219  GLU219      0.0388
     39  CG       -13.4590  -18.7820   14.7520 C.3   219  GLU219      0.1160
     40  CD       -13.0890  -19.5170   13.4780 C.2   219  GLU219      0.3649
     41  OE1      -12.4040  -20.5580   13.5600 O.co2 219  GLU219     -0.2457
     42  OE2      -13.4770  -19.0390   12.3870 O.co2 219  GLU219     -0.2457
     43  N        -10.5510  -12.5540   13.3450 N.3   237  VAL237     -0.1231
     44  CA       -10.1440  -13.6430   14.2400 C.3   237  VAL237      0.1692
     45  C         -8.6740  -13.5100   14.6750 C.2   237  VAL237      0.2592
     46  O         -8.2650  -14.0770   15.6930 O.2   237  VAL237     -0.2718
     47  CB       -10.4390  -15.0490   13.6090 C.3   237  VAL237      0.0266
     48  CG1       -9.5400  -15.3300   12.4100 C.3   237  VAL237      0.0020
     49  CG2      -10.3080  -16.1530   14.6450 C.3   237  VAL237      0.0020
     50  N         -7.8900  -12.7720   13.8910 N.am  238  SER238     -0.1952
     51  CA        -6.5900  -12.2680   14.3290 C.3   238  SER238      0.1924
     52  C         -6.5610  -10.7500   14.2390 C.2   238  SER238      0.2314
     53  O         -6.6940  -10.1870   13.1490 O.2   238  SER238     -0.2863
     54  CB        -5.4610  -12.8140   13.4620 C.3   238  SER238      0.2116
     55  OG        -4.2510  -12.1430   13.7740 O.3   238  SER238     -0.2180
     56  N         -3.7870   -9.0580   15.2680 N.3   240  ASN240     -0.1240
     57  CA        -2.3470   -8.8210   15.4670 C.3   240  ASN240      0.1653
     58  C         -1.8980   -8.7620   16.9300 C.2   240  ASN240      0.2266
     59  O         -0.8130   -8.2730   17.2270 O.2   240  ASN240     -0.2867
     60  CB        -1.8890   -7.5510   14.7290 C.3   240  ASN240      0.1155
     61  CG        -1.5860   -7.7980   13.2740 C.2   240  ASN240      0.2627
     62  OD1       -1.8220   -8.8880   12.7490 O.2   240  ASN240     -0.2716
     63  ND2       -1.0660   -6.7780   12.6040 N.am  240  ASN240     -0.0877
     64  N         -1.7130  -11.5210   18.8230 N.3   242  CYS242     -0.1235
     65  CA        -1.2630  -12.8750   19.1620 C.3   242  CYS242      0.1677
     66  C          0.1530  -12.9230   19.7390 C.2   242  CYS242      0.2270
     67  O          0.3240  -13.5290   20.7910 O.2   242  CYS242     -0.2867
     68  CB        -1.3980  -13.8450   17.9810 C.3   242  CYS242      0.0956
     69  SG        -2.7150  -13.4250   16.8290 S.3   242  CYS242     -0.0801
     70  N          1.4580  -13.1360   15.6470 N.3   244  ASP244     -0.1225
     71  CA         2.0090  -14.1690   14.7800 C.3   244  ASP244      0.1805
     72  C          2.7500  -13.5830   13.5880 C.2   244  ASP244      0.2598
     73  O          2.1850  -12.8160   12.8180 O.2   244  ASP244     -0.2718
     74  CB         0.8940  -15.0820   14.2720 C.3   244  ASP244      0.1424
     75  CG         1.4220  -16.2740   13.5050 C.2   244  ASP244      0.3668
     76  OD1        2.2670  -17.0180   14.0500 O.co2 244  ASP244     -0.2456
     77  OD2        1.0530  -16.5400   12.3410 O.co2 244  ASP244     -0.2456
     78  N          4.0160  -13.9670   13.4460 N.am  245  LYS245     -0.1966
     79  CA         4.8350  -13.6380   12.2780 C.3   245  LYS245      0.1728
     80  C          5.1280  -12.1430   12.0820 C.2   245  LYS245      0.2616
     81  O          5.5120  -11.7280   10.9950 O.2   245  LYS245     -0.2715
     82  CB         4.2250  -14.2750   11.0190 C.3   245  LYS245      0.0311
     83  CG         4.1330  -15.7900   11.1380 C.3   245  LYS245      0.0038
     84  CD         3.4230  -16.4490    9.9720 C.3   245  LYS245      0.0206
     85  CE         3.2810  -17.9510   10.2070 C.3   245  LYS245      0.1093
     86  NZ         2.6100  -18.6460    9.0760 N.3   245  LYS245     -0.1314
     87  N          4.9520  -11.3480   13.1390 N.am  246  LYS246     -0.1977
     88  CA         5.4070   -9.9550   13.1690 C.3   246  LYS246      0.1596
     89  C          6.1510   -9.6780   14.4820 C.2   246  LYS246      0.2287
     90  O          5.7770  -10.2140   15.5210 O.2   246  LYS246     -0.2864
     91  CB         4.2250   -8.9890   13.0590 C.3   246  LYS246      0.0298
     92  CG         3.6190   -8.8440   11.6560 C.3   246  LYS246      0.0038
     93  CD         2.5350   -9.8810   11.3710 C.3   246  LYS246      0.0206
     94  CE         1.3560   -9.7920   12.3420 C.3   246  LYS246      0.1093
     95  NZ         0.1820  -10.5880   11.8680 N.3   246  LYS246     -0.1314
@<TRIPOS>BOND
     1    86    85    1
     2    84    85    1
     3    84    83    1
     4    26    25    2
     5    27    25   am
     6    81    80    2
     7    82    83    1
     8    82    79    1
     9    25    24    1
    10    93    92    1
    11    93    94    1
    12    92    91    1
    13    95    94    1
    14    80    79    1
    15    80    87   am
    16    79    78    1
    17    77    75   ar
    18    42    40   ar
    19    48    47    1
    20    63    61   am
    21    24    21    1
    22    62    61    2
    23    73    72    2
    24    91    88    1
    25    87    88    1
    26    53    52    2
    27    88    89    1
    28    61    60    1
    29    43    44    1
    30    11     9    1
    31    78    72   am
    32    54    55    1
    33    54    51    1
    34    40    41   ar
    35    40    39    1
    36    75    76   ar
    37    75    74    1
    38    72    71    1
    39    47    44    1
    40    47    49    1
    41    21    20    1
    42    21    22    1
    43    50    51    1
    44    50    45   am
    45    16    17    1
    46    16    13    1
    47    33    32    1
    48    20    14   am
    49    10     9    1
    50     9     8    2
    51    52    51    1
    52    44    45    1
    53    74    71    1
    54    89    90    2
    55    17    18    1
    56    18    19    1
    57    45    46    2
    58    32    29    1
    59    60    57    1
    60    39    38    1
    61    71    70    1
    62    14    13    1
    63    14    15    2
    64    23    22    2
    65     8     7    1
    66    13    12    1
    67    56    57    1
    68    57    58    1
    69    38    35    1
    70     7     6    1
    71    31    30    2
    72    29    30    1
    73    29    28    1
    74    69    68    1
    75    58    59    2
    76     6     5    1
    77    35    34    1
    78    35    36    1
    79    68    65    1
    80    36    37    2
    81     5     2    1
    82    64    65    1
    83     2     3    1
    84     2     1    1
    85    65    66    1
    86     3     4    2
    87    66    67    2
