@<TRIPOS>MOLECULE
tmp/3cdoC03.pdb
 79 74 0 0 0
SMALL
GASTEIGER

@<TRIPOS>ATOM
      1  N         42.8850   33.2880   98.6000 N.3     2  ASN2       -0.1225
      2  CA        42.2970   33.9250   99.7690 C.3     2  ASN2        0.1785
      3  C         42.5620   33.0380  100.9830 C.2     2  ASN2        0.2597
      4  O         43.1410   31.9450  100.8450 O.2     2  ASN2       -0.2718
      5  CB        40.7950   34.1870   99.5640 C.3     2  ASN2        0.1169
      6  CG        39.9970   32.9200   99.3120 C.2     2  ASN2        0.2627
      7  OD1       40.0460   31.9560  100.0980 O.2     2  ASN2       -0.2716
      8  ND2       39.2230   32.9220   98.2230 N.am    2  ASN2       -0.0877
      9  N         42.1770   33.5160  102.1650 N.am    3  ILE3       -0.1966
     10  CA        42.4200   32.7880  103.4190 C.3     3  ILE3        0.1727
     11  C         41.8520   31.3650  103.4120 C.2     3  ILE3        0.2616
     12  O         42.4470   30.4420  104.0040 O.2     3  ILE3       -0.2715
     13  CB        41.9040   33.5710  104.6650 C.3     3  ILE3        0.0290
     14  CG1       42.3060   32.8630  105.9720 C.3     3  ILE3        0.0022
     15  CG2       40.3760   33.8300  104.6090 C.3     3  ILE3        0.0023
     16  CD1       43.8150   32.7020  106.1640 C.3     3  ILE3        0.0001
     17  N         40.7210   31.1760  102.7360 N.am    4  PHE4       -0.1974
     18  CA        40.1020   29.8500  102.6850 C.3     4  PHE4        0.1639
     19  C         40.9090   28.8770  101.8290 C.2     4  PHE4        0.2290
     20  O         41.2330   27.7580  102.2630 O.2     4  PHE4       -0.2864
     21  CB        38.6450   29.9590  102.2460 C.3     4  PHE4        0.0560
     22  CG        37.7700   30.5990  103.2730 C.ar    4  PHE4       -0.0200
     23  CD1       37.5800   31.9780  103.2890 C.ar    4  PHE4       -0.0042
     24  CD2       37.1460   29.8210  104.2550 C.ar    4  PHE4       -0.0042
     25  CE1       36.7800   32.5820  104.2680 C.ar    4  PHE4       -0.0003
     26  CE2       36.3300   30.4200  105.2260 C.ar    4  PHE4       -0.0003
     27  CZ        36.1660   31.8020  105.2370 C.ar    4  PHE4       -0.0000
     28  N         37.3590   29.5960  110.6720 N.3    71  VAL71      -0.1245
     29  CA        38.0540   30.7970  110.1680 C.3    71  VAL71       0.1561
     30  C         37.4470   32.0230  110.8580 C.2    71  VAL71       0.2260
     31  O         38.1810   32.8600  111.3840 O.2    71  VAL71      -0.2867
     32  CB        38.0240   30.9370  108.6170 C.3    71  VAL71       0.0252
     33  CG1       38.6080   32.2700  108.1880 C.3    71  VAL71       0.0019
     34  CG2       38.8030   29.8130  107.9210 C.3    71  VAL71       0.0019
     35  N         39.3740   34.8160  113.4080 N.3    75  VAL75      -0.1245
     36  CA        39.3030   36.2730  113.2520 C.3    75  VAL75       0.1561
     37  C         38.8100   36.9310  114.5390 C.2    75  VAL75       0.2260
     38  O         39.3960   37.9390  114.9900 O.2    75  VAL75      -0.2867
     39  CB        38.4660   36.7110  112.0110 C.3    75  VAL75       0.0252
     40  CG1       38.2530   38.2350  112.0100 C.3    75  VAL75       0.0019
     41  CG2       39.1830   36.3130  110.7290 C.3    75  VAL75       0.0019
     42  N         46.9340   42.9820  113.3690 N.3    88  TYR88      -0.1241
     43  CA        45.8840   42.8480  112.3470 C.3    88  TYR88       0.1605
     44  C         45.6210   44.1820  111.6170 C.2    88  TYR88       0.2264
     45  O         45.5860   44.2440  110.3800 O.2    88  TYR88      -0.2867
     46  CB        44.5970   42.3280  113.0050 C.3    88  TYR88       0.0534
     47  CG        43.3660   42.3970  112.1170 C.ar   88  TYR88      -0.0201
     48  CD1       42.5920   43.5630  112.0490 C.ar   88  TYR88      -0.0009
     49  CD2       42.9880   41.3080  111.3390 C.ar   88  TYR88      -0.0009
     50  CE1       41.4640   43.6470  111.2250 C.ar   88  TYR88       0.0417
     51  CE2       41.8520   41.3780  110.5050 C.ar   88  TYR88       0.0417
     52  CZ        41.1060   42.5550  110.4510 C.ar   88  TYR88       0.1957
     53  OH        39.9870   42.6410  109.6370 O.3    88  TYR88      -0.2866
     54  N         45.9210   43.1550  102.7590 N.3    93  ALA93      -0.1245
     55  CA        44.9400   42.0940  102.4530 C.3    93  ALA93       0.1562
     56  C         45.5400   40.6960  102.3030 C.2    93  ALA93       0.2260
     57  O         44.8340   39.6880  102.4630 O.2    93  ALA93      -0.2867
     58  CB        44.1220   42.4660  101.1670 C.3    93  ALA93       0.0290
     59  N         47.5710   39.8190  106.1370 N.3    96  VAL96      -0.1231
     60  CA        46.6050   39.5080  107.2200 C.3    96  VAL96       0.1692
     61  C         46.2450   38.0130  107.2380 C.2    96  VAL96       0.2592
     62  O         46.0480   37.4150  108.3000 O.2    96  VAL96      -0.2718
     63  CB        45.3420   40.4300  107.1840 C.3    96  VAL96       0.0266
     64  CG1       44.3620   40.0170  106.0520 C.3    96  VAL96       0.0020
     65  CG2       44.6550   40.4340  108.5240 C.3    96  VAL96       0.0020
     66  N         46.1910   37.4050  106.0520 N.am   97  CYS97      -0.1970
     67  CA        45.9040   35.9710  105.9290 C.3    97  CYS97       0.1712
     68  C         46.9460   35.1070  106.6370 C.2    97  CYS97       0.2296
     69  O         46.6430   34.0280  107.1560 O.2    97  CYS97      -0.2864
     70  CB        45.8160   35.5670  104.4530 C.3    97  CYS97       0.0983
     71  SG        44.4270   36.3150  103.5670 S.3    97  CYS97      -0.0798
     72  N         45.9790   35.2450  110.2930 N.3   100  ILE100     -0.1245
     73  CA        44.8110   34.3810  110.5190 C.3   100  ILE100      0.1561
     74  C         45.1900   32.8900  110.5010 C.2   100  ILE100      0.2260
     75  O         44.7120   32.1000  111.3280 O.2   100  ILE100     -0.2867
     76  CB        43.6820   34.6770  109.5050 C.3   100  ILE100      0.0252
     77  CG1       43.2260   36.1480  109.6390 C.3   100  ILE100      0.0019
     78  CG2       42.4940   33.6890  109.7090 C.3   100  ILE100      0.0019
     79  CD1       42.3210   36.6300  108.4710 C.3   100  ILE100      0.0001
@<TRIPOS>BOND
     1     8     6   am
     2     1     2    1
     3     6     5    1
     4     6     7    2
     5     5     2    1
     6     2     3    1
     7     4     3    2
     8     3     9   am
     9    58    55    1
    10    19    20    2
    11    19    18    1
    12     9    10    1
    13    21    18    1
    14    21    22    1
    15    56    55    1
    16    56    57    2
    17    55    54    1
    18    18    17    1
    19    17    11   am
    20    22    23   ar
    21    22    24   ar
    22    23    25   ar
    23    11    10    1
    24    11    12    2
    25    10    13    1
    26    71    70    1
    27    24    26   ar
    28    25    27   ar
    29    70    67    1
    30    15    13    1
    31    13    14    1
    32    26    27   ar
    33    67    66    1
    34    67    68    1
    35    14    16    1
    36    66    61   am
    37    64    63    1
    38    59    60    1
    39    68    69    2
    40    63    60    1
    41    63    65    1
    42    60    61    1
    43    61    62    2
    44    34    32    1
    45    33    32    1
    46    79    77    1
    47    32    29    1
    48    76    77    1
    49    76    78    1
    50    76    73    1
    51    53    52    1
    52    29    28    1
    53    29    30    1
    54    72    73    1
    55    45    44    2
    56    52    51   ar
    57    52    50   ar
    58    74    73    1
    59    74    75    2
    60    51    49   ar
    61    41    39    1
    62    30    31    2
    63    50    48   ar
    64    49    47   ar
    65    44    43    1
    66    40    39    1
    67    39    36    1
    68    48    47   ar
    69    47    46    1
    70    43    46    1
    71    43    42    1
    72    36    35    1
    73    36    37    1
    74    37    38    2
