@<TRIPOS>MOLECULE
tmp/3cdsA00.pdb
 178 168 0 0 0
SMALL
GASTEIGER

@<TRIPOS>ATOM
      1  N         21.9310   68.9200   11.6940 N.3    76  PHE76      -0.1241
      2  CA        21.6610   68.4620   13.0490 C.3    76  PHE76       0.1605
      3  C         20.7740   69.3520   13.9000 C.2    76  PHE76       0.2264
      4  O         20.1650   68.8870   14.8600 O.2    76  PHE76      -0.2867
      5  CB        22.9690   68.1390   13.7640 C.3    76  PHE76       0.0534
      6  CG        23.6080   66.8670   13.2750 C.ar   76  PHE76      -0.0203
      7  CD1       24.3300   66.8470   12.0830 C.ar   76  PHE76      -0.0042
      8  CD2       23.4360   65.6760   13.9730 C.ar   76  PHE76      -0.0042
      9  CE1       24.8690   65.6630   11.5950 C.ar   76  PHE76      -0.0003
     10  CE2       23.9690   64.4880   13.4930 C.ar   76  PHE76      -0.0003
     11  CZ        24.6890   64.4810   12.3000 C.ar   76  PHE76      -0.0000
     12  N         17.6970   67.9430   12.9450 N.3    79  CYS79      -0.1221
     13  CA        17.5830   66.6170   13.5350 C.3    79  CYS79       0.1808
     14  C         17.1190   66.6950   14.9960 C.2    79  CYS79       0.2601
     15  O         16.4690   65.7750   15.4970 O.2    79  CYS79      -0.2717
     16  CB        18.9360   65.9130   13.4410 C.3    79  CYS79       0.0970
     17  SG        19.0370   64.3220   14.2400 S.3    79  CYS79      -0.0800
     18  N         17.4580   67.7880   15.6780 N.am   80  GLN80      -0.1979
     19  CA        17.0420   67.9550   17.0650 C.3    80  GLN80       0.1601
     20  C         15.5430   68.1680   17.1010 C.2    80  GLN80       0.2287
     21  O         14.8510   67.6100   17.9500 O.2    80  GLN80      -0.2864
     22  CB        17.6990   69.1690   17.7140 C.3    80  GLN80       0.0394
     23  CG        19.1740   69.0570   17.9490 C.3    80  GLN80       0.0908
     24  CD        19.6610   70.0710   18.9650 C.2    80  GLN80       0.2608
     25  OE1       19.3270   69.9900   20.1470 O.2    80  GLN80      -0.2717
     26  NE2       20.4480   71.0370   18.5080 N.am   80  GLN80      -0.0878
     27  N         13.1800   67.1760   15.0500 N.3    82  ARG82      -0.1231
     28  CA        12.4510   65.9330   14.8520 C.3    82  ARG82       0.1694
     29  C         12.4600   65.0510   16.0950 C.2    82  ARG82       0.2592
     30  O         11.4500   64.4160   16.4210 O.2    82  ARG82      -0.2718
     31  CB        13.0210   65.1690   13.6580 C.3    82  ARG82       0.0321
     32  CG        12.7470   65.8630   12.3440 C.3    82  ARG82       0.0489
     33  CD        11.2470   66.0480   12.1240 C.3    82  ARG82       0.2205
     34  NE        10.9560   66.9650   11.0200 N.pl3  82  ARG82      -0.0865
     35  CZ         9.7320   67.3700   10.6810 C.cat  82  ARG82       0.5346
     36  NH1        8.6740   66.9350   11.3580 N.pl3  82  ARG82       0.1354
     37  NH2        9.5680   68.2290    9.6800 N.pl3  82  ARG82       0.1354
     38  N         13.5990   65.0200   16.7830 N.am   83  SER83      -0.1952
     39  CA        13.7490   64.2300   18.0020 C.3    83  SER83       0.1924
     40  C         12.7220   64.6760   19.0300 C.2    83  SER83       0.2314
     41  O         11.9940   63.8560   19.5940 O.2    83  SER83      -0.2863
     42  CB        15.1510   64.4070   18.5720 C.3    83  SER83       0.2116
     43  OG        16.1310   64.2150   17.5650 O.3    83  SER83      -0.2180
     44  N          9.8330   62.5180   20.5220 N.3    87  VAL87      -0.1245
     45  CA         9.5950   62.2570   21.9370 C.3    87  VAL87       0.1561
     46  C          8.1370   62.5360   22.2520 C.2    87  VAL87       0.2260
     47  O          7.4200   61.6470   22.7330 O.2    87  VAL87      -0.2867
     48  CB        10.5120   63.1190   22.8630 C.3    87  VAL87       0.0252
     49  CG1       10.1480   62.8840   24.3340 C.3    87  VAL87       0.0019
     50  CG2       11.9770   62.7530   22.6390 C.3    87  VAL87       0.0019
     51  N         14.7170   57.3040   23.4330 N.3   117  HIS117     -0.1241
     52  CA        15.6530   57.1210   22.3350 C.3   117  HIS117      0.1621
     53  C         15.7240   55.7290   21.7580 C.2   117  HIS117      0.2264
     54  O         15.9760   55.5740   20.5660 O.2   117  HIS117     -0.2867
     55  CB        17.0420   57.5890   22.7320 C.3   117  HIS117      0.0745
     56  CG        17.1630   59.0740   22.7840 C.ar  117  HIS117      0.0817
     57  ND1       16.6980   59.8210   23.8430 N.ar  117  HIS117     -0.2268
     58  CD2       17.6440   59.9590   21.8820 C.ar  117  HIS117      0.1154
     59  CE1       16.8900   61.1040   23.5910 C.ar  117  HIS117      0.1986
     60  NE2       17.4650   61.2140   22.4080 N.ar  117  HIS117     -0.2212
     61  N         13.0420   55.8580   19.2550 N.3   120  ILE120     -0.1231
     62  CA        13.3540   56.7350   18.1570 C.3   120  ILE120      0.1692
     63  C         14.1340   55.9880   17.0910 C.2   120  ILE120      0.2592
     64  O         13.7300   55.9550   15.9390 O.2   120  ILE120     -0.2718
     65  CB        14.1650   57.9500   18.6530 C.3   120  ILE120      0.0266
     66  CG1       13.2320   58.9310   19.3610 C.3   120  ILE120      0.0019
     67  CG2       14.9030   58.6070   17.5070 C.3   120  ILE120      0.0020
     68  CD1       13.9480   60.1360   19.9360 C.3   120  ILE120      0.0001
     69  N         15.2490   55.3770   17.4720 N.am  121  TYR121     -0.1976
     70  CA        16.0820   54.6610   16.5050 C.3   121  TYR121      0.1639
     71  C         15.3900   53.4330   15.9240 C.2   121  TYR121      0.2290
     72  O         15.7010   53.0050   14.8190 O.2   121  TYR121     -0.2864
     73  CB        17.4150   54.2720   17.1570 C.3   121  TYR121      0.0560
     74  CG        18.1040   55.4460   17.8220 C.ar  121  TYR121     -0.0198
     75  CD1       18.2020   56.6810   17.1750 C.ar  121  TYR121     -0.0009
     76  CD2       18.6220   55.3410   19.1210 C.ar  121  TYR121     -0.0009
     77  CE1       18.7840   57.7770   17.8020 C.ar  121  TYR121      0.0417
     78  CE2       19.2080   56.4360   19.7540 C.ar  121  TYR121      0.0417
     79  CZ        19.2810   57.6460   19.0870 C.ar  121  TYR121      0.1957
     80  OH        19.8370   58.7370   19.7070 O.3   121  TYR121     -0.2866
     81  N         13.1580   55.0320   13.5130 N.3   124  LEU124     -0.1245
     82  CA        14.0070   55.7150   12.5600 C.3   124  LEU124      0.1561
     83  C         14.4030   54.7310   11.4670 C.2   124  LEU124      0.2260
     84  O         14.6120   55.1150   10.3140 O.2   124  LEU124     -0.2867
     85  CB        15.2500   56.2540   13.2560 C.3   124  LEU124      0.0270
     86  CG        16.1610   57.0410   12.3160 C.3   124  LEU124      0.0019
     87  CD1       15.3680   58.2150   11.7330 C.3   124  LEU124      0.0001
     88  CD2       17.3930   57.5140   13.0600 C.3   124  LEU124      0.0001
     89  N         27.4090   60.3680   13.3380 N.3   157  PHE157     -0.1227
     90  CA        26.2890   60.3270   14.2560 C.3   157  PHE157      0.1736
     91  C         25.2430   59.3800   13.6920 C.2   157  PHE157      0.2595
     92  O         24.5150   58.7160   14.4360 O.2   157  PHE157     -0.2718
     93  CB        25.6750   61.7160   14.4120 C.3   157  PHE157      0.0547
     94  CG        25.9690   62.3580   15.7250 C.ar  157  PHE157     -0.0202
     95  CD1       25.5050   61.7950   16.9050 C.ar  157  PHE157     -0.0042
     96  CD2       26.7340   63.5140   15.7910 C.ar  157  PHE157     -0.0042
     97  CE1       25.8020   62.3780   18.1360 C.ar  157  PHE157     -0.0003
     98  CE2       27.0350   64.1010   17.0210 C.ar  157  PHE157     -0.0003
     99  CZ        26.5710   63.5350   18.1900 C.ar  157  PHE157     -0.0000
    100  N         25.1750   59.3050   12.3680 N.am  158  MET158     -0.1979
    101  CA        24.1810   58.4540   11.7320 C.3   158  MET158      0.1605
    102  C         24.6150   57.0680   11.2720 C.2   158  MET158      0.2287
    103  O         23.7970   56.1530   11.2440 O.2   158  MET158     -0.2864
    104  CB        23.5450   59.2000   10.5630 C.3   158  MET158      0.0413
    105  CG        22.6870   60.3540   11.0040 C.3   158  MET158      0.0598
    106  SD        21.3450   59.8140   12.0790 S.3   158  MET158     -0.1393
    107  CE        20.3220   58.9370   10.8970 C.3   158  MET158      0.0692
    108  N         23.3830   54.1050   13.1940 N.3   161  LYS161     -0.1245
    109  CA        21.9300   53.9350   13.1370 C.3   161  LYS161      0.1561
    110  C         21.6450   53.1470   11.8710 C.2   161  LYS161      0.2260
    111  O         20.8760   52.1920   11.8820 O.2   161  LYS161     -0.2867
    112  CB        21.2020   55.2880   13.0630 C.3   161  LYS161      0.0271
    113  CG        20.9520   55.9790   14.3980 C.3   161  LYS161      0.0035
    114  CD        22.2290   56.4670   15.0160 C.3   161  LYS161      0.0206
    115  CE        21.9570   57.0880   16.3620 C.3   161  LYS161      0.1093
    116  NZ        23.1970   57.6870   16.9240 N.3   161  LYS161     -0.1314
    117  N         25.8030   57.2590   21.1000 N.3   243  HIS243     -0.1241
    118  CA        25.2280   58.5720   20.8710 C.3   243  HIS243      0.1621
    119  C         25.6090   59.5690   21.9490 C.2   243  HIS243      0.2264
    120  O         26.0820   60.6590   21.6430 O.2   243  HIS243     -0.2867
    121  CB        23.7080   58.4940   20.7880 C.3   243  HIS243      0.0745
    122  CG        23.0780   59.7280   20.2260 C.ar  243  HIS243      0.0817
    123  ND1       23.0620   60.0050   18.8770 N.ar  243  HIS243     -0.2268
    124  CD2       22.4580   60.7680   20.8310 C.ar  243  HIS243      0.1154
    125  CE1       22.4560   61.1580   18.6740 C.ar  243  HIS243      0.1986
    126  NE2       22.0790   61.6430   19.8440 N.ar  243  HIS243     -0.2212
    127  N         27.6900   62.9800   21.6110 N.3   247  LEU247     -0.1245
    128  CA        26.9790   64.1720   22.0420 C.3   247  LEU247      0.1561
    129  C         27.8830   64.9540   22.9840 C.2   247  LEU247      0.2260
    130  O         28.1280   66.1530   22.7940 O.2   247  LEU247     -0.2867
    131  CB        25.6860   63.7690   22.7500 C.3   247  LEU247      0.0270
    132  CG        24.3570   64.3680   22.2820 C.3   247  LEU247      0.0019
    133  CD1       24.2090   64.2440   20.7750 C.3   247  LEU247      0.0001
    134  CD2       23.2170   63.6400   22.9820 C.3   247  LEU247      0.0001
    135  N         30.3960   66.8280   21.0950 N.3   250  ILE250     -0.1245
    136  CA        30.0030   68.0330   20.3670 C.3   250  ILE250      0.1561
    137  C         29.9300   69.2250   21.3240 C.2   250  ILE250      0.2260
    138  O         30.4140   70.3200   21.0200 O.2   250  ILE250     -0.2867
    139  CB        28.6440   67.8500   19.6740 C.3   250  ILE250      0.0252
    140  CG1       28.8320   67.0520   18.3890 C.3   250  ILE250      0.0019
    141  CG2       28.0250   69.2020   19.3670 C.3   250  ILE250      0.0019
    142  CD1       27.6340   67.0880   17.4890 C.3   250  ILE250      0.0001
    143  N         26.7050   75.3050   19.8200 N.3   257  MET257     -0.1245
    144  CA        25.6230   74.3470   19.6110 C.3   257  MET257      0.1570
    145  C         24.7790   74.2580   20.8740 C.2   257  MET257      0.2261
    146  O         25.3110   74.1460   21.9720 O.2   257  MET257     -0.2867
    147  CB        26.2020   72.9720   19.2830 C.3   257  MET257      0.0387
    148  CG        25.1660   71.8740   19.1320 C.3   257  MET257      0.0595
    149  SD        24.4890   71.7970   17.4850 S.3   257  MET257     -0.1393
    150  CE        25.6610   70.7300   16.7520 C.3   257  MET257      0.0692
    151  N         21.8120   72.0680   22.6880 N.3   259  LEU259     -0.1245
    152  CA        20.8900   70.9430   22.7700 C.3   259  LEU259      0.1561
    153  C         19.5650   71.4620   23.3280 C.2   259  LEU259      0.2260
    154  O         19.5470   72.3590   24.1780 O.2   259  LEU259     -0.2867
    155  CB        21.4580   69.8350   23.6610 C.3   259  LEU259      0.0270
    156  CG        20.6200   68.5570   23.8060 C.3   259  LEU259      0.0019
    157  CD1       20.1310   68.1040   22.4420 C.3   259  LEU259      0.0001
    158  CD2       21.4490   67.4580   24.4610 C.3   259  LEU259      0.0001
    159  N         15.4160   67.5840   25.4970 N.3   263  LEU263     -0.1245
    160  CA        16.4180   66.5830   25.1520 C.3   263  LEU263      0.1561
    161  C         17.5060   66.5110   26.2250 C.2   263  LEU263      0.2260
    162  O         18.0380   65.4370   26.5110 O.2   263  LEU263     -0.2867
    163  CB        17.0340   66.8980   23.7860 C.3   263  LEU263      0.0270
    164  CG        16.4660   66.1580   22.5640 C.3   263  LEU263      0.0019
    165  CD1       14.9520   66.1050   22.6080 C.3   263  LEU263      0.0001
    166  CD2       16.9480   66.8500   21.2950 C.3   263  LEU263      0.0001
    167  N         18.6610   63.2330   28.5550 N.3   267  TYR267     -0.1241
    168  CA        20.0600   62.8290   28.6580 C.3   267  TYR267      0.1605
    169  C         20.7840   63.1850   29.9500 C.2   267  TYR267      0.2264
    170  O         20.6170   64.2680   30.5050 O.2   267  TYR267     -0.2867
    171  CB        20.8550   63.3710   27.4670 C.3   267  TYR267      0.0534
    172  CG        20.6250   62.6080   26.1830 C.ar  267  TYR267     -0.0201
    173  CD1       20.7640   61.2220   26.1410 C.ar  267  TYR267     -0.0009
    174  CD2       20.2920   63.2720   25.0020 C.ar  267  TYR267     -0.0009
    175  CE1       20.5810   60.5210   24.9610 C.ar  267  TYR267      0.0417
    176  CE2       20.1090   62.5750   23.8150 C.ar  267  TYR267      0.0417
    177  CZ        20.2580   61.2030   23.8040 C.ar  267  TYR267      0.1957
    178  OH        20.1160   60.5080   22.6320 O.3   267  TYR267     -0.2866
@<TRIPOS>BOND
     1    37    35    1
     2    84    83    2
     3   104   105    1
     4   104   101    1
     5    35    34    2
     6    35    36    1
     7   107   106    1
     8   105   106    1
     9    34    33    1
    10   103   102    2
    11   102   101    1
    12    83    82    1
    13     9     7   ar
    14     9    11   ar
    15     1     2    1
    16   101   100    1
    17    87    86    1
    18   110   111    2
    19   110   109    1
    20     7     6   ar
    21    33    32    1
    22    11    10   ar
    23    86    88    1
    24    86    85    1
    25    32    31    1
    26   100    91   am
    27    82    85    1
    28    82    81    1
    29    12    13    1
    30     2     5    1
    31     2     3    1
    32   112   109    1
    33   112   113    1
    34   109   108    1
    35     6     5    1
    36     6     8   ar
    37    89    90    1
    38    16    13    1
    39    16    17    1
    40    10     8   ar
    41    13    14    1
    42    31    28    1
    43    91    90    1
    44    91    92    2
    45     3     4    2
    46    90    93    1
    47   113   114    1
    48    93    94    1
    49    72    71    2
    50    28    27    1
    51    28    29    1
    52    14    15    2
    53    14    18   am
    54   114   115    1
    55    18    19    1
    56    94    96   ar
    57    94    95   ar
    58    96    98   ar
    59    71    70    1
    60    64    63    2
    61    29    30    2
    62    29    38   am
    63   115   116    1
    64    70    73    1
    65    70    69    1
    66   150   149    1
    67    38    39    1
    68    95    97   ar
    69    98    99   ar
    70    19    20    1
    71    19    22    1
    72    63    69   am
    73    63    62    1
    74    20    21    2
    75    73    74    1
    76    75    77   ar
    77    75    74   ar
    78   149   148    1
    79   142   140    1
    80    67    65    1
    81    43    42    1
    82    22    23    1
    83    77    79   ar
    84    74    76   ar
    85    23    24    1
    86    39    42    1
    87    39    40    1
    88    97    99   ar
    89    62    65    1
    90    62    61    1
    91   140   139    1
    92    26    24   am
    93    65    66    1
    94   125   123   ar
    95   125   126   ar
    96   123   122   ar
    97    24    25    2
    98    40    41    2
    99    79    80    1
   100    79    78   ar
   101    76    78   ar
   102   148   147    1
   103   147   144    1
   104    66    68    1
   105   141   139    1
   106   144   143    1
   107   144   145    1
   108   139   136    1
   109   126   124   ar
   110   122   121    1
   111   122   124   ar
   112   136   135    1
   113   136   137    1
   114    44    45    1
   115    54    53    2
   116   133   132    1
   117   121   118    1
   118   118   117    1
   119   118   119    1
   120   145   146    2
   121   138   137    2
   122   166   164    1
   123   127   128    1
   124   120   119    2
   125    53    52    1
   126    58    60   ar
   127    58    56   ar
   128    45    46    1
   129    45    48    1
   130   128   131    1
   131   128   129    1
   132    46    47    2
   133   132   131    1
   134   132   134    1
   135    52    55    1
   136    52    51    1
   137    60    59   ar
   138   157   156    1
   139   164   165    1
   140   164   163    1
   141   178   177    1
   142    50    48    1
   143   151   152    1
   144    55    56    1
   145   152   153    1
   146   152   155    1
   147    56    57   ar
   148   130   129    2
   149    48    49    1
   150   153   154    2
   151    59    57   ar
   152   155   156    1
   153   163   160    1
   154   177   176   ar
   155   177   175   ar
   156   156   158    1
   157   176   174   ar
   158   175   173   ar
   159   174   172   ar
   160   160   159    1
   161   160   161    1
   162   173   172   ar
   163   172   171    1
   164   161   162    2
   165   171   168    1
   166   167   168    1
   167   168   169    1
   168   169   170    2
