@<TRIPOS>MOLECULE
tmp/3ce0A00.pdb
 134 131 0 0 0
SMALL
GASTEIGER

@<TRIPOS>ATOM
      1  N         29.6100   -5.5230   17.2770 N.3   104  ASP104     -0.1239
      2  CA        28.2720   -4.9630   17.1570 C.3   104  ASP104      0.1674
      3  C         28.0830   -3.8250   18.1520 C.2   104  ASP104      0.2266
      4  O         27.4250   -2.8280   17.8570 O.2   104  ASP104     -0.2867
      5  CB        27.2160   -6.0460   17.3840 C.3   104  ASP104      0.1410
      6  CG        27.1940   -7.0790   16.2740 C.2   104  ASP104      0.3668
      7  OD1       27.6960   -6.7770   15.1700 O.co2 104  ASP104     -0.2456
      8  OD2       26.6720   -8.1910   16.5030 O.co2 104  ASP104     -0.2456
      9  N         27.4090    0.2840   17.2210 N.3   108  VAL108     -0.1245
     10  CA        26.3330    1.0890   17.7800 C.3   108  VAL108      0.1561
     11  C         26.9190    2.3280   18.4370 C.2   108  VAL108      0.2260
     12  O         26.4110    3.4370   18.2710 O.2   108  VAL108     -0.2867
     13  CB        25.5250    0.2990   18.8250 C.3   108  VAL108      0.0252
     14  CG1       24.6060    1.2290   19.6030 C.3   108  VAL108      0.0019
     15  CG2       24.7320   -0.8120   18.1540 C.3   108  VAL108      0.0019
     16  N         10.9190   -4.6180    6.3930 N.3   203  TRP203     -0.1227
     17  CA        11.1080   -4.0720    7.7300 C.3   203  TRP203      0.1737
     18  C         12.5760   -4.0560    8.1310 C.2   203  TRP203      0.2595
     19  O         13.3590   -4.9060    7.7060 O.2   203  TRP203     -0.2718
     20  CB        10.3210   -4.8860    8.7590 C.3   203  TRP203      0.0564
     21  CG         8.8380   -4.8490    8.5750 C.ar  203  TRP203      0.0003
     22  CD1        8.0500   -5.8380    8.0630 C.ar  203  TRP203      0.0946
     23  CD2        7.9600   -3.7700    8.9110 C.ar  203  TRP203      0.0152
     24  NE1        6.7360   -5.4410    8.0570 N.ar  203  TRP203     -0.2442
     25  CE2        6.6530   -4.1740    8.5730 C.ar  203  TRP203      0.0810
     26  CE3        8.1510   -2.5000    9.4640 C.ar  203  TRP203      0.0012
     27  CZ2        5.5430   -3.3550    8.7680 C.ar  203  TRP203      0.0191
     28  CZ3        7.0480   -1.6870    9.6570 C.ar  203  TRP203      0.0001
     29  CH2        5.7610   -2.1180    9.3100 C.ar  203  TRP203      0.0015
     30  N         12.9380   -3.0770    8.9520 N.am  204  HIS204     -0.1961
     31  CA        14.2540   -3.0370    9.5730 C.3   204  HIS204      0.1787
     32  C         14.1440   -2.4670   10.9800 C.2   204  HIS204      0.2621
     33  O         14.0190   -1.2550   11.1620 O.2   204  HIS204     -0.2715
     34  CB        15.2390   -2.2100    8.7490 C.3   204  HIS204      0.0785
     35  CG        16.6440   -2.2720    9.2600 C.ar  204  HIS204      0.0821
     36  ND1       17.5940   -3.1150    8.7250 N.ar  204  HIS204     -0.2267
     37  CD2       17.2550   -1.6110   10.2710 C.ar  204  HIS204      0.1154
     38  CE1       18.7320   -2.9630    9.3780 C.ar  204  HIS204      0.1986
     39  NE2       18.5530   -2.0570   10.3220 N.ar  204  HIS204     -0.2212
     40  N         14.1790   -3.3490   11.9730 N.am  205  GLY205     -0.1940
     41  CA        14.1060   -2.9370   13.3610 C.3   205  GLY205      0.2014
     42  C         15.4420   -2.4410   13.8710 C.2   205  GLY205      0.2640
     43  O         16.4530   -3.1310   13.7750 O.2   205  GLY205     -0.2714
     44  N         15.4480   -1.2350   14.4210 N.am  206  THR206     -0.1936
     45  CA        16.6810   -0.6310   14.8990 C.3   206  THR206      0.2028
     46  C         16.5050   -0.0990   16.3130 C.2   206  THR206      0.2642
     47  O         15.3980    0.2600   16.7120 O.2   206  THR206     -0.2714
     48  CB        17.1200    0.5200   13.9780 C.3   206  THR206      0.1808
     49  OG1       18.2170    1.2180   14.5770 O.3   206  THR206     -0.2208
     50  CG2       15.9730    1.4910   13.7560 C.3   206  THR206      0.0379
     51  N         17.5900   -0.0600   17.0780 N.am  207  ASN207     -0.1971
     52  CA        17.5290    0.5380   18.4040 C.3   207  ASN207      0.1688
     53  C         17.7290    2.0480   18.3210 C.2   207  ASN207      0.2292
     54  O         18.4410    2.5420   17.4480 O.2   207  ASN207     -0.2864
     55  CB        18.5210   -0.1160   19.3740 C.3   207  ASN207      0.1181
     56  CG        19.9510    0.3140   19.1330 C.2   207  ASN207      0.2629
     57  OD1       20.5770   -0.0920   18.1540 O.2   207  ASN207     -0.2716
     58  ND2       20.4840    1.1270   20.0390 N.am  207  ASN207     -0.0877
     59  N         28.4480   -8.1480   10.6300 N.3   226  GLY226     -0.1225
     60  CA        28.1840   -9.5200   10.2370 C.3   226  GLY226      0.1811
     61  C         26.7860   -9.9910   10.5850 C.2   226  GLY226      0.2280
     62  O         25.8830   -9.1850   10.8070 O.2   226  GLY226     -0.2866
     63  N         20.4250   -6.2470    6.5430 N.3   234  TYR234     -0.1227
     64  CA        19.3930   -7.2100    6.9170 C.3   234  TYR234      0.1736
     65  C         17.9880   -6.6150    6.9460 C.2   234  TYR234      0.2595
     66  O         17.7720   -5.5290    7.4780 O.2   234  TYR234     -0.2718
     67  CB        19.7170   -7.8290    8.2770 C.3   234  TYR234      0.0548
     68  CG        20.8630   -8.8130    8.2470 C.ar  234  TYR234     -0.0200
     69  CD1       20.6290  -10.1810    8.2910 C.ar  234  TYR234     -0.0009
     70  CD2       22.1790   -8.3750    8.1730 C.ar  234  TYR234     -0.0009
     71  CE1       21.6720  -11.0850    8.2640 C.ar  234  TYR234      0.0417
     72  CE2       23.2280   -9.2710    8.1460 C.ar  234  TYR234      0.0417
     73  CZ        22.9690  -10.6250    8.1910 C.ar  234  TYR234      0.1957
     74  OH        24.0080  -11.5240    8.1630 O.3   234  TYR234     -0.2866
     75  N         17.0380   -7.3460    6.3710 N.am  235  PHE235     -0.1962
     76  CA        15.6370   -6.9440    6.3700 C.3   235  PHE235      0.1771
     77  C         14.7440   -8.1200    6.7410 C.2   235  PHE235      0.2619
     78  O         15.2090   -9.2550    6.8640 O.2   235  PHE235     -0.2715
     79  CB        15.2290   -6.4210    4.9930 C.3   235  PHE235      0.0574
     80  CG        15.8900   -5.1310    4.6140 C.ar  235  PHE235     -0.0200
     81  CD1       15.2780   -3.9200    4.8850 C.ar  235  PHE235     -0.0042
     82  CD2       17.1200   -5.1300    3.9820 C.ar  235  PHE235     -0.0042
     83  CE1       15.8820   -2.7340    4.5350 C.ar  235  PHE235     -0.0003
     84  CE2       17.7270   -3.9450    3.6290 C.ar  235  PHE235     -0.0003
     85  CZ        17.1080   -2.7460    3.9060 C.ar  235  PHE235     -0.0000
     86  N         13.4550   -7.8410    6.9050 N.am  236  ALA236     -0.1977
     87  CA        12.4850   -8.8740    7.2390 C.3   236  ALA236      0.1597
     88  C         11.1180   -8.5560    6.6430 C.2   236  ALA236      0.2287
     89  O         10.6960   -7.4010    6.6170 O.2   236  ALA236     -0.2864
     90  CB        12.3820   -9.0300    8.7470 C.3   236  ALA236      0.0319
     91  N          9.7700  -10.2310   13.3280 N.3   241  LYS241     -0.1231
     92  CA        11.1870  -10.5630   13.2360 C.3   241  LYS241      0.1693
     93  C         12.0610   -9.3270   13.4430 C.2   241  LYS241      0.2592
     94  O         13.0930   -9.3880   14.1100 O.2   241  LYS241     -0.2718
     95  CB        11.4940  -11.2060   11.8830 C.3   241  LYS241      0.0285
     96  CG        12.9740  -11.4350   11.6150 C.3   241  LYS241      0.0035
     97  CD        13.5470  -12.5330   12.4970 C.3   241  LYS241      0.0206
     98  CE        14.9790  -12.8600   12.0970 C.3   241  LYS241      0.1093
     99  NZ        15.5740  -13.9360   12.9370 N.3   241  LYS241     -0.1314
    100  N         11.6380   -8.2060   12.8690 N.am  242  SER242     -0.1952
    101  CA        12.3940   -6.9640   12.9680 C.3   242  SER242      0.1924
    102  C         12.2560   -6.3330   14.3500 C.2   242  SER242      0.2314
    103  O         13.2160   -5.7810   14.8900 O.2   242  SER242     -0.2863
    104  CB        11.9420   -5.9770   11.8890 C.3   242  SER242      0.2116
    105  OG        12.2520   -6.4590   10.5930 O.3   242  SER242     -0.2180
    106  N         14.6480   -6.5830   17.2400 N.3   245  TYR245     -0.1241
    107  CA        15.8830   -5.8080   17.2330 C.3   245  TYR245      0.1605
    108  C         15.6410   -4.3720   17.6890 C.2   245  TYR245      0.2264
    109  O         16.5810   -3.5950   17.8540 O.2   245  TYR245     -0.2867
    110  CB        16.5120   -5.8160   15.8390 C.3   245  TYR245      0.0534
    111  CG        17.0430   -7.1670   15.4220 C.ar  245  TYR245     -0.0201
    112  CD1       18.3620   -7.5200   15.6710 C.ar  245  TYR245     -0.0009
    113  CD2       16.2260   -8.0890   14.7840 C.ar  245  TYR245     -0.0009
    114  CE1       18.8530   -8.7550   15.2940 C.ar  245  TYR245      0.0417
    115  CE2       16.7080   -9.3270   14.4040 C.ar  245  TYR245      0.0417
    116  CZ        18.0220   -9.6550   14.6610 C.ar  245  TYR245      0.1957
    117  OH        18.5090  -10.8870   14.2850 O.3   245  TYR245     -0.2866
    118  N         15.2280   -1.9050   20.2390 N.3   247  ILE247     -0.1245
    119  CA        15.4340   -1.6160   21.6520 C.3   247  ILE247      0.1561
    120  C         15.0130   -0.1820   21.9640 C.2   247  ILE247      0.2260
    121  O         15.6280    0.7730   21.4890 O.2   247  ILE247     -0.2867
    122  CB        16.9020   -1.8260   22.0680 C.3   247  ILE247      0.0252
    123  CG1       17.2060   -3.3380   22.0480 C.3   247  ILE247      0.0019
    124  CG2       17.1870   -1.2050   23.4130 C.3   247  ILE247      0.0019
    125  CD1       18.6680   -3.6690   22.1710 C.3   247  ILE247      0.0001
    126  N         15.0130  -13.7510    6.2840 N.3   334  GLU334     -0.1245
    127  CA        15.9450  -12.6410    6.4140 C.3   334  GLU334      0.1567
    128  C         16.4420  -12.2090    5.0390 C.2   334  GLU334      0.2260
    129  O         17.2790  -12.8790    4.4370 O.2   334  GLU334     -0.2867
    130  CB        17.1290  -13.0310    7.3010 C.3   334  GLU334      0.0388
    131  CG        16.7440  -13.4190    8.7180 C.3   334  GLU334      0.1160
    132  CD        17.9450  -13.5360    9.6360 C.2   334  GLU334      0.3649
    133  OE1       19.0410  -13.0800    9.2470 O.co2 334  GLU334     -0.2457
    134  OE2       17.7920  -14.0790   10.7510 O.co2 334  GLU334     -0.2457
@<TRIPOS>BOND
     1    84    85   ar
     2    84    82   ar
     3    85    83   ar
     4    82    80   ar
     5   129   128    2
     6    83    81   ar
     7    80    81   ar
     8    80    79    1
     9    79    76    1
    10   128   127    1
    11   126   127    1
    12    76    75    1
    13    76    77    1
    14    75    65   am
    15    16    17    1
    16   127   130    1
    17    63    64    1
    18    89    88    2
    19    88    87    1
    20    77    78    2
    21    77    86   am
    22    86    87    1
    23    64    65    1
    24    64    67    1
    25    65    66    2
    26    87    90    1
    27   130   131    1
    28    19    18    2
    29    17    18    1
    30    17    20    1
    31    24    22   ar
    32    24    25   ar
    33    22    21   ar
    34    18    30   am
    35    72    70   ar
    36    72    73   ar
    37    74    73    1
    38    70    68   ar
    39    73    71   ar
    40    68    67    1
    41    68    69   ar
    42    71    69   ar
    43    25    27   ar
    44    25    23   ar
    45    21    20    1
    46    21    23   ar
    47   131   132    1
    48    36    35   ar
    49    36    38   ar
    50    34    35    1
    51    34    31    1
    52    27    29   ar
    53    23    26   ar
    54    30    31    1
    55   133   132   ar
    56    35    37   ar
    57    29    28   ar
    58    38    39   ar
    59    26    28   ar
    60    31    32    1
    61   132   134   ar
    62    60    61    1
    63    60    59    1
    64    37    39   ar
    65    61    62    2
    66   105   104    1
    67    32    33    2
    68    32    40   am
    69    96    95    1
    70    96    97    1
    71    95    92    1
    72   104   101    1
    73    40    41    1
    74    98    97    1
    75    98    99    1
    76   100   101    1
    77   100    93   am
    78   101   102    1
    79    92    91    1
    80    92    93    1
    81    41    42    1
    82    93    94    2
    83    50    48    1
    84    43    42    2
    85    42    44   am
    86    48    49    1
    87    48    45    1
    88   117   116    1
    89   102   103    2
    90   115   116   ar
    91   115   113   ar
    92    44    45    1
    93   116   114   ar
    94   113   111   ar
    95    45    46    1
    96     7     6   ar
    97   114   112   ar
    98   111   112   ar
    99   111   110    1
   100   110   107    1
   101     6     8   ar
   102     6     5    1
   103    46    47    2
   104    46    51   am
   105    51    52    1
   106     2     1    1
   107     2     5    1
   108     2     3    1
   109     9    10    1
   110   107   106    1
   111   107   108    1
   112    54    53    2
   113   108   109    2
   114    10    11    1
   115    10    13    1
   116     4     3    2
   117    15    13    1
   118    57    56    2
   119    12    11    2
   120    53    52    1
   121    52    55    1
   122    13    14    1
   123    56    55    1
   124    56    58   am
   125   118   119    1
   126   121   120    2
   127   119   120    1
   128   119   122    1
   129   123   122    1
   130   123   125    1
   131   122   124    1
