@<TRIPOS>MOLECULE
tmp/3ce3A00.pdb
 203 194 0 0 0
SMALL
GASTEIGER

@<TRIPOS>ATOM
      1  N         18.6040    4.4200   57.7110 N.3    31  ILE31      -0.1245
      2  CA        18.6560    5.4660   58.7270 C.3    31  ILE31       0.1561
      3  C         17.2520    5.9690   59.0400 C.2    31  ILE31       0.2260
      4  O         17.0210    6.5610   60.0940 O.2    31  ILE31      -0.2867
      5  CB        19.5740    6.6320   58.3070 C.3    31  ILE31       0.0252
      6  CG1       20.8990    6.5730   59.0650 C.3    31  ILE31       0.0019
      7  CG2       18.8920    7.9650   58.5670 C.3    31  ILE31       0.0019
      8  CD1       21.7200    7.8410   58.9500 C.3    31  ILE31       0.0001
      9  N         17.6460    8.4850   52.8570 N.3    39  VAL39      -0.1245
     10  CA        18.1950    8.3380   54.2040 C.3    39  VAL39       0.1561
     11  C         18.5340    6.8900   54.5480 C.2    39  VAL39       0.2260
     12  O         17.6800    6.1450   55.0300 O.2    39  VAL39      -0.2867
     13  CB        17.2390    8.9300   55.2560 C.3    39  VAL39       0.0252
     14  CG1       17.8290   10.1950   55.8720 C.3    39  VAL39       0.0019
     15  CG2       15.8750    9.2050   54.6340 C.3    39  VAL39       0.0019
     16  N         25.9010    9.3940   57.1040 N.3    55  ALA55      -0.1245
     17  CA        24.5220    9.3050   56.6450 C.3    55  ALA55       0.1562
     18  C         24.5750    9.5500   55.1440 C.2    55  ALA55       0.2260
     19  O         25.2300   10.4890   54.6820 O.2    55  ALA55      -0.2867
     20  CB        23.6580   10.3620   57.3310 C.3    55  ALA55       0.0290
     21  N         22.8130   10.3320   51.4700 N.3    57  LYS57      -0.1245
     22  CA        21.6860   10.9580   50.7830 C.3    57  LYS57       0.1561
     23  C         22.0470   11.3510   49.3410 C.2    57  LYS57       0.2260
     24  O         22.2480   12.5300   49.0470 O.2    57  LYS57      -0.2867
     25  CB        21.2320   12.2120   51.5440 C.3    57  LYS57       0.0271
     26  CG        20.1940   11.9700   52.6340 C.3    57  LYS57       0.0035
     27  CD        19.0000   12.9100   52.4960 C.3    57  LYS57       0.0206
     28  CE        19.4230   14.3690   52.3930 C.3    57  LYS57       0.1093
     29  NZ        18.3490   15.2330   51.8090 N.3    57  LYS57      -0.1314
     30  N         21.3120   22.3560   46.3850 N.3    74  GLU74      -0.1231
     31  CA        21.1580   22.5640   47.8260 C.3    74  GLU74       0.1699
     32  C         22.2910   21.9190   48.6240 C.2    74  GLU74       0.2592
     33  O         22.5960   22.3410   49.7400 O.2    74  GLU74      -0.2718
     34  CB        19.7970   22.0540   48.3140 C.3    74  GLU74       0.0402
     35  CG        19.1360   22.9550   49.3570 C.3    74  GLU74       0.1161
     36  CD        17.6170   22.8480   49.3660 C.2    74  GLU74       0.3649
     37  OE1       17.0720   21.9900   48.6380 O.co2  74  GLU74      -0.2457
     38  OE2       16.9700   23.6240   50.1060 O.co2  74  GLU74      -0.2457
     39  N         22.9270   20.9080   48.0430 N.am   75  GLY75      -0.1957
     40  CA        24.0360   20.2450   48.6980 C.3    75  GLY75       0.1869
     41  C         25.2820   21.1100   48.6600 C.2    75  GLY75       0.2309
     42  O         26.2010   20.9330   49.4670 O.2    75  GLY75      -0.2863
     43  N         25.2970   24.4450   49.0530 N.3    77  ILE77      -0.1231
     44  CA        25.1500   25.5030   50.0540 C.3    77  ILE77       0.1692
     45  C         26.1550   25.3190   51.1910 C.2    77  ILE77       0.2591
     46  O         26.8130   26.2690   51.6290 O.2    77  ILE77      -0.2718
     47  CB        23.7110   25.5110   50.6280 C.3    77  ILE77       0.0266
     48  CG1       22.7030   26.0050   49.5890 C.3    77  ILE77       0.0019
     49  CG2       23.6410   26.3460   51.8940 C.3    77  ILE77       0.0020
     50  CD1       21.2670   25.9450   50.0660 C.3    77  ILE77       0.0001
     51  N         26.2520   24.0750   51.6520 N.am   78  MET78      -0.1979
     52  CA        27.1150   23.6880   52.7630 C.3    78  MET78       0.1605
     53  C         28.6100   23.7410   52.4580 C.2    78  MET78       0.2287
     54  O         29.4340   23.3500   53.2930 O.2    78  MET78      -0.2864
     55  CB        26.7340   22.2880   53.2590 C.3    78  MET78       0.0413
     56  CG        25.2660   21.9400   53.0540 C.3    78  MET78       0.0598
     57  SD        24.8290   20.2950   53.6510 S.3    78  MET78      -0.1393
     58  CE        24.8440   20.5690   55.4080 C.3    78  MET78       0.0692
     59  N         30.1520   26.0260   55.0420 N.3    81  PHE81      -0.1241
     60  CA        29.4910   25.9760   56.3330 C.3    81  PHE81       0.1605
     61  C         30.4050   25.2580   57.3150 C.2    81  PHE81       0.2264
     62  O         30.1970   24.0770   57.6220 O.2    81  PHE81      -0.2867
     63  CB        28.1550   25.2440   56.2210 C.3    81  PHE81       0.0534
     64  CG        27.0360   26.0970   55.6820 C.ar   81  PHE81      -0.0203
     65  CD1       27.2960   27.3530   55.1360 C.ar   81  PHE81      -0.0042
     66  CD2       25.7210   25.6440   55.7220 C.ar   81  PHE81      -0.0042
     67  CE1       26.2690   28.1360   54.6380 C.ar   81  PHE81      -0.0003
     68  CE2       24.6860   26.4240   55.2300 C.ar   81  PHE81      -0.0003
     69  CZ        24.9590   27.6680   54.6850 C.ar   81  PHE81      -0.0000
     70  N         27.0410   23.8490   63.3350 N.3    86  VAL86      -0.1231
     71  CA        26.3600   23.7880   62.0330 C.3    86  VAL86       0.1692
     72  C         26.6800   22.4640   61.3330 C.2    86  VAL86       0.2591
     73  O         27.8290   22.0160   61.3450 O.2    86  VAL86      -0.2718
     74  CB        26.7200   25.0160   61.0970 C.3    86  VAL86       0.0266
     75  CG1       25.9240   24.9630   59.7990 C.3    86  VAL86       0.0020
     76  CG2       26.4750   26.3640   61.8040 C.3    86  VAL86       0.0020
     77  N         25.6770   21.8500   60.7020 N.am   87  LEU87      -0.1980
     78  CA        25.9300   20.6230   59.9530 C.3    87  LEU87       0.1596
     79  C         26.5840   20.9510   58.6070 C.2    87  LEU87       0.2287
     80  O         26.3390   22.0150   58.0270 O.2    87  LEU87      -0.2864
     81  CB        24.6570   19.7890   59.7390 C.3    87  LEU87       0.0297
     82  CG        24.9350   18.3700   59.1960 C.3    87  LEU87       0.0022
     83  CD1       25.7140   17.5010   60.1920 C.3    87  LEU87       0.0001
     84  CD2       23.6780   17.6580   58.7240 C.3    87  LEU87       0.0001
     85  N         26.8060   13.0840   54.6520 N.3   104  LEU104     -0.1231
     86  CA        26.7000   13.8610   55.8800 C.3   104  LEU104      0.1678
     87  C         27.2200   13.0430   57.0600 C.2   104  LEU104      0.2434
     88  O         26.8690   11.8760   57.2270 O.2   104  LEU104     -0.2733
     89  CB        25.2470   14.2820   56.1100 C.3   104  LEU104      0.0284
     90  CG        24.6730   15.0680   54.9280 C.3   104  LEU104      0.0019
     91  CD1       23.1790   14.8910   54.7880 C.3   104  LEU104      0.0001
     92  CD2       25.0680   16.5310   55.0190 C.3   104  LEU104      0.0001
     93  N         28.0890   13.6400   57.8840 N.am  105  PRO105     -0.2718
     94  CA        28.5840   12.8570   59.0270 C.3   105  PRO105      0.1535
     95  C         27.4520   12.2680   59.8950 C.2   105  PRO105      0.2599
     96  O         26.4450   12.9190   60.1290 O.2   105  PRO105     -0.2715
     97  CB        29.3960   13.8840   59.8260 C.3   105  PRO105      0.0310
     98  CG        28.8550   15.2280   59.3970 C.3   105  PRO105      0.0237
     99  CD        28.4650   15.0640   57.9670 C.3   105  PRO105      0.0939
    100  N         27.6360   11.0390   60.3740 N.am  106  TYR106     -0.1960
    101  CA        26.6590   10.3770   61.2360 C.3   106  TYR106      0.1771
    102  C         26.5380   10.9890   62.6400 C.2   106  TYR106      0.2619
    103  O         27.5320   11.2080   63.3350 O.2   106  TYR106     -0.2715
    104  CB        26.9910    8.8950   61.3770 C.3   106  TYR106      0.0574
    105  CG        25.9080    8.1050   62.0840 C.ar  106  TYR106     -0.0198
    106  CD1       24.6510    7.9500   61.5130 C.ar  106  TYR106     -0.0009
    107  CD2       26.1330    7.5380   63.3360 C.ar  106  TYR106     -0.0009
    108  CE1       23.6490    7.2550   62.1730 C.ar  106  TYR106      0.0417
    109  CE2       25.1360    6.8180   63.9950 C.ar  106  TYR106      0.0417
    110  CZ        23.9000    6.6890   63.4100 C.ar  106  TYR106      0.1957
    111  OH        22.9050    5.9880   64.0500 O.3   106  TYR106     -0.2866
    112  N         25.2970   11.2060   63.0650 N.am  107  MET107     -0.1977
    113  CA        24.9840   11.7590   64.3770 C.3   107  MET107      0.1605
    114  C         24.3890   10.6380   65.2020 C.2   107  MET107      0.2287
    115  O         23.2690   10.1910   64.9310 O.2   107  MET107     -0.2864
    116  CB        23.9380   12.8670   64.2280 C.3   107  MET107      0.0413
    117  CG        24.2270   13.8420   63.1080 C.3   107  MET107      0.0598
    118  SD        25.2950   15.1760   63.6460 S.3   107  MET107     -0.1393
    119  CE        26.9180   14.5080   63.3930 C.3   107  MET107      0.0692
    120  N         20.7340   11.4810   66.7290 N.3   110  GLY110     -0.1210
    121  CA        19.6930   11.9620   65.8230 C.3   110  GLY110      0.1956
    122  C         19.1620   13.3820   65.9710 C.2   110  GLY110      0.2611
    123  O         19.9250   14.3320   66.1290 O.2   110  GLY110     -0.2717
    124  N         17.8420   13.5290   65.8770 N.am  111  ASP111     -0.1973
    125  CA        17.2020   14.8390   65.9800 C.3   111  ASP111      0.1709
    126  C         16.9230   15.3150   67.4130 C.2   111  ASP111      0.2293
    127  O         16.4240   14.5610   68.2530 O.2   111  ASP111     -0.2864
    128  CB        15.9600   14.9300   65.0820 C.3   111  ASP111      0.1436
    129  CG        14.6820   14.4380   65.7650 C.2   111  ASP111      0.3671
    130  OD1       13.9990   15.2420   66.4340 O.co2 111  ASP111     -0.2456
    131  OD2       14.3070   13.2690   65.5550 O.co2 111  ASP111     -0.2456
    132  N         25.8390   31.8950   60.8370 N.3   142  LEU142     -0.1245
    133  CA        25.1390   31.9310   59.5460 C.3   142  LEU142      0.1561
    134  C         24.7050   33.3700   59.2140 C.2   142  LEU142      0.2260
    135  O         24.7520   33.8080   58.0550 O.2   142  LEU142     -0.2867
    136  CB        23.9260   30.9660   59.5420 C.3   142  LEU142      0.0270
    137  CG        24.1370   29.4420   59.7210 C.3   142  LEU142      0.0019
    138  CD1       22.8230   28.7020   59.9140 C.3   142  LEU142      0.0001
    139  CD2       24.9280   28.8150   58.5780 C.3   142  LEU142      0.0001
    140  N         23.2250   34.5250   55.5610 N.3   147  PHE147     -0.1241
    141  CA        22.4530   33.3480   55.1860 C.3   147  PHE147      0.1605
    142  C         21.1980   33.2410   56.0680 C.2   147  PHE147      0.2264
    143  O         21.2890   33.3250   57.2950 O.2   147  PHE147     -0.2867
    144  CB        23.3220   32.0850   55.2600 C.3   147  PHE147      0.0534
    145  CG        22.5790   30.8100   54.9640 C.ar  147  PHE147     -0.0203
    146  CD1       22.4080   30.3820   53.6600 C.ar  147  PHE147     -0.0042
    147  CD2       22.1020   30.0110   56.0010 C.ar  147  PHE147     -0.0042
    148  CE1       21.7450   29.1990   53.3960 C.ar  147  PHE147     -0.0003
    149  CE2       21.4240   28.8370   55.7460 C.ar  147  PHE147     -0.0003
    150  CZ        21.2450   28.4260   54.4450 C.ar  147  PHE147     -0.0000
    151  N         18.0470   30.9730   57.2100 N.3   149  HIS149     -0.1241
    152  CA        17.6440   29.5610   57.3240 C.3   149  HIS149      0.1621
    153  C         16.2530   29.2170   56.7800 C.2   149  HIS149      0.2264
    154  O         16.0990   28.2750   56.0000 O.2   149  HIS149     -0.2867
    155  CB        17.8040   29.0570   58.7640 C.3   149  HIS149      0.0745
    156  CG        17.7210   27.5630   58.9020 C.ar  149  HIS149      0.0817
    157  ND1       16.6090   26.8390   58.5240 N.ar  149  HIS149     -0.2268
    158  CD2       18.5920   26.6660   59.4270 C.ar  149  HIS149      0.1154
    159  CE1       16.8070   25.5580   58.7910 C.ar  149  HIS149      0.1986
    160  NE2       17.9960   25.4280   59.3480 N.ar  149  HIS149     -0.2212
    161  N         20.5490   18.6850   64.9910 N.3   158  MET158     -0.1245
    162  CA        21.1060   17.3450   65.2260 C.3   158  MET158      0.1570
    163  C         21.9630   17.2200   66.4910 C.2   158  MET158      0.2261
    164  O         22.4070   18.2260   67.0450 O.2   158  MET158     -0.2867
    165  CB        21.8790   16.8530   63.9960 C.3   158  MET158      0.0387
    166  CG        21.0790   16.8720   62.7050 C.3   158  MET158      0.0595
    167  SD        19.6760   15.7080   62.6550 S.3   158  MET158     -0.1393
    168  CE        20.4380   14.3200   61.9020 C.3   158  MET158      0.0692
    169  N         23.0890   22.6680   63.7290 N.3   167  VAL167     -0.1231
    170  CA        21.9130   23.1480   63.0070 C.3   167  VAL167      0.1692
    171  C         21.8880   22.5960   61.5880 C.2   167  VAL167      0.2592
    172  O         22.9200   22.5720   60.9280 O.2   167  VAL167     -0.2718
    173  CB        21.8220   24.6950   62.9780 C.3   167  VAL167      0.0266
    174  CG1       21.0120   25.1210   61.7810 C.3   167  VAL167      0.0020
    175  CG2       21.1830   25.2470   64.2540 C.3   167  VAL167      0.0020
    176  N         20.7080   22.1780   61.1120 N.am  168  ALA168     -0.1966
    177  CA        20.5900   21.6390   59.7550 C.3   168  ALA168      0.1728
    178  C         19.2120   21.8250   59.1150 C.2   168  ALA168      0.2616
    179  O         18.3920   22.6180   59.5890 O.2   168  ALA168     -0.2715
    180  CB        21.0100   20.1730   59.7170 C.3   168  ALA168      0.0334
    181  N         18.9850   21.1140   58.0100 N.am  169  ASP169     -0.1957
    182  CA        17.7060   21.1600   57.2950 C.3   169  ASP169      0.1840
    183  C         17.3770   19.8560   56.6000 C.2   169  ASP169      0.2622
    184  O         17.9920   19.5070   55.5980 O.2   169  ASP169     -0.2715
    185  CB        17.6580   22.2930   56.2690 C.3   169  ASP169      0.1450
    186  CG        16.2360   22.8180   56.0350 C.2   169  ASP169      0.3671
    187  OD1       15.2690   22.0210   56.0940 O.co2 169  ASP169     -0.2456
    188  OD2       16.0830   24.0420   55.8260 O.co2 169  ASP169     -0.2456
    189  N         16.3630   19.1700   57.1150 N.am  170  PHE170     -0.1960
    190  CA        15.8810   17.9180   56.5390 C.3   170  PHE170      0.1771
    191  C         15.3070   18.0710   55.1140 C.2   170  PHE170      0.2620
    192  O         14.1040   18.2870   54.9360 O.2   170  PHE170     -0.2715
    193  CB        14.8380   17.2790   57.4700 C.3   170  PHE170      0.0574
    194  CG        15.4170   16.2400   58.3840 C.ar  170  PHE170     -0.0200
    195  CD1       15.6360   14.9440   57.9260 C.ar  170  PHE170     -0.0042
    196  CD2       15.8590   16.5890   59.6610 C.ar  170  PHE170     -0.0042
    197  CE1       16.2220   14.0000   58.7500 C.ar  170  PHE170     -0.0003
    198  CE2       16.4340   15.6550   60.4960 C.ar  170  PHE170     -0.0003
    199  CZ        16.6090   14.3540   60.0460 C.ar  170  PHE170     -0.0000
    200  N         16.1720   17.9450   54.1090 N.am  171  GLY171     -0.1954
    201  CA        15.7980   18.0730   52.7090 C.3   171  GLY171      0.1869
    202  C         14.4750   17.4240   52.3390 C.2   171  GLY171      0.2309
    203  O         13.4780   18.1100   52.1000 O.2   171  GLY171     -0.2863
@<TRIPOS>BOND
     1    30    31    1
     2    31    34    1
     3    31    32    1
     4    39    32   am
     5    39    40    1
     6    34    35    1
     7    32    33    2
     8    37    36   ar
     9    41    40    1
    10    41    42    2
    11    24    23    2
    12    43    44    1
    13    23    22    1
    14    35    36    1
    15    36    38   ar
    16    48    50    1
    17    48    47    1
    18    44    47    1
    19    44    45    1
    20    47    49    1
    21    22    21    1
    22    22    25    1
    23    45    46    2
    24    45    51   am
    25    25    26    1
    26    51    52    1
    27    29    28    1
    28   203   202    2
    29   202   201    1
    30    28    27    1
    31    53    52    1
    32    53    54    2
    33    27    26    1
    34   201   200    1
    35    52    55    1
    36     9    10    1
    37    56    55    1
    38    56    57    1
    39   148   146   ar
    40   148   150   ar
    41    57    58    1
    42   146   145   ar
    43   200   191   am
    44    10    11    1
    45    10    13    1
    46   150   149   ar
    47    11    12    2
    48    15    13    1
    49    67    69   ar
    50    67    65   ar
    51    85    86    1
    52    19    18    2
    53    69    68   ar
    54    91    90    1
    55    90    92    1
    56    90    89    1
    57   192   191    2
    58   145   144    1
    59   145   147   ar
    60    59    60    1
    61   191   190    1
    62    65    64   ar
    63    18    17    1
    64   141   144    1
    65   141   140    1
    66   141   142    1
    67    68    66   ar
    68    13    14    1
    69   184   183    2
    70    64    66   ar
    71    64    63    1
    72   149   147   ar
    73   188   186   ar
    74    86    89    1
    75    86    87    1
    76   154   153    2
    77   186   187   ar
    78   186   185    1
    79   142   143    2
    80    63    60    1
    81   185   182    1
    82    60    61    1
    83   190   189    1
    84   190   193    1
    85   183   189   am
    86   183   182    1
    87    17    16    1
    88    17    20    1
    89   153   152    1
    90    87    88    2
    91    87    93   am
    92   151   152    1
    93   182   181    1
    94    61    62    2
    95   152   155    1
    96   193   194    1
    97     1     2    1
    98    93    99    1
    99    93    94    1
   100   195   194   ar
   101   195   197   ar
   102    99    98    1
   103   181   178   am
   104    80    79    2
   105   135   134    2
   106     5     7    1
   107     5     2    1
   108     5     6    1
   109   194   196   ar
   110   157   159   ar
   111   157   156   ar
   112   139   137    1
   113    79    78    1
   114    84    82    1
   115     2     3    1
   116   197   199   ar
   117   155   156    1
   118   159   160   ar
   119   156   158   ar
   120     8     6    1
   121    94    97    1
   122    94    95    1
   123     3     4    2
   124   178   179    2
   125   178   177    1
   126    82    81    1
   127    82    83    1
   128   134   133    1
   129   160   158   ar
   130    98    97    1
   131   136   133    1
   132   136   137    1
   133   133   132    1
   134   196   198   ar
   135   180   177    1
   136   137   138    1
   137    81    78    1
   138   177   176    1
   139    75    74    1
   140    95    96    2
   141    95   100   am
   142    78    77    1
   143   199   198   ar
   144   100   101    1
   145    77    72   am
   146   172   171    2
   147    74    76    1
   148    74    71    1
   149   176   171   am
   150   101   104    1
   151   101   102    1
   152    72    73    2
   153    72    71    1
   154   104   105    1
   155   106   105   ar
   156   106   108   ar
   157   171   170    1
   158   174   173    1
   159   168   167    1
   160    71    70    1
   161   105   107   ar
   162   108   110   ar
   163   102   112   am
   164   102   103    2
   165   167   166    1
   166   166   165    1
   167   173   170    1
   168   173   175    1
   169   170   169    1
   170   112   113    1
   171   117   118    1
   172   117   116    1
   173   107   109   ar
   174   119   118    1
   175   110   109   ar
   176   110   111    1
   177   165   162    1
   178   116   113    1
   179   113   114    1
   180   115   114    2
   181   161   162    1
   182   128   129    1
   183   128   125    1
   184   162   163    1
   185   131   129   ar
   186   129   130   ar
   187   121   122    1
   188   121   120    1
   189   124   122   am
   190   124   125    1
   191   122   123    2
   192   125   126    1
   193   163   164    2
   194   126   127    2
