@<TRIPOS>MOLECULE
tmp/3ce4C00.pdb
 98 95 0 0 0
SMALL
GASTEIGER

@<TRIPOS>ATOM
      1  N         21.5790   -2.8120   23.3760 N.3     1  PRO1       -0.2102
      2  CA        22.2250   -1.6770   22.7140 C.3     1  PRO1        0.1504
      3  C         22.9980   -2.1840   21.5060 C.2     1  PRO1        0.2575
      4  O         23.1930   -3.3900   21.3640 O.2     1  PRO1       -0.2718
      5  CB        23.1690   -1.1710   23.7820 C.3     1  PRO1        0.0282
      6  CG        23.7100   -2.4730   24.3130 C.3     1  PRO1        0.0208
      7  CD        22.4580   -3.3550   24.4290 C.3     1  PRO1        0.0893
      8  N         23.4410   -1.2760   20.6400 N.am    2  MET2       -0.1980
      9  CA        24.2170   -1.6820   19.4800 C.3     2  MET2        0.1605
     10  C         25.3040   -0.6810   19.2370 C.2     2  MET2        0.2287
     11  O         25.0620    0.5190   19.3240 O.2     2  MET2       -0.2864
     12  CB        23.3470   -1.8210   18.2350 C.3     2  MET2        0.0413
     13  CG        22.5840   -0.6410   17.8800 C.3     2  MET2        0.0598
     14  SD        21.6550   -0.9420   16.3730 S.3     2  MET2       -0.1393
     15  CE        22.8270   -0.6770   15.1410 C.3     2  MET2        0.0692
     16  N         23.7150   -3.4950   30.2400 N.3    32  LYS32      -0.1231
     17  CA        22.7490   -4.2950   29.4900 C.3    32  LYS32       0.1678
     18  C         23.2340   -5.7450   29.5080 C.2    32  LYS32       0.2434
     19  O         24.4400   -5.9860   29.5070 O.2    32  LYS32      -0.2733
     20  CB        22.6020   -3.7760   28.0570 C.3    32  LYS32       0.0284
     21  CG        22.0970   -2.3410   27.9600 C.3    32  LYS32       0.0035
     22  CD        20.6280   -2.2020   28.3900 C.3    32  LYS32       0.0206
     23  CE        20.0540   -0.8170   27.9880 C.3    32  LYS32       0.1093
     24  NZ        18.5990   -0.6620   28.3100 N.3    32  LYS32      -0.1314
     25  N         22.3030   -6.7110   29.5080 N.am   33  PRO33      -0.2729
     26  CA        22.7330   -8.1120   29.5030 C.3    33  PRO33       0.1401
     27  C         23.5560   -8.4080   28.2330 C.2    33  PRO33       0.2269
     28  O         23.1880   -7.9300   27.1680 O.2    33  PRO33      -0.2865
     29  CB        21.4120   -8.8820   29.4860 C.3    33  PRO33       0.0296
     30  CG        20.3500   -7.9050   29.8910 C.3    33  PRO33       0.0237
     31  CD        20.8330   -6.5770   29.4790 C.3    33  PRO33       0.0939
     32  N         22.0160   -9.1950   24.6730 N.3    36  TYR36      -0.1241
     33  CA        21.3720   -8.1560   23.8850 C.3    36  TYR36       0.1605
     34  C         22.3580   -7.2810   23.1490 C.2    36  TYR36       0.2264
     35  O         21.9520   -6.4350   22.3310 O.2    36  TYR36      -0.2867
     36  CB        20.5160   -7.2600   24.7900 C.3    36  TYR36       0.0534
     37  CG        19.2150   -7.8850   25.1950 C.ar   36  TYR36      -0.0201
     38  CD1       18.1300   -7.9070   24.3180 C.ar   36  TYR36      -0.0009
     39  CD2       19.0550   -8.4430   26.4600 C.ar   36  TYR36      -0.0009
     40  CE1       16.9170   -8.4730   24.6940 C.ar   36  TYR36       0.0417
     41  CE2       17.8590   -8.9990   26.8420 C.ar   36  TYR36       0.0417
     42  CZ        16.7940   -9.0220   25.9520 C.ar   36  TYR36       0.1957
     43  OH        15.5950   -9.5870   26.3360 O.3    36  TYR36      -0.2866
     44  N         24.6360   -5.9210   20.4810 N.3    38  ALA38      -0.1245
     45  CA        25.0700   -6.1140   19.0890 C.3    38  ALA38       0.1562
     46  C         26.2550   -5.2270   18.7630 C.2    38  ALA38       0.2260
     47  O         26.3340   -4.0650   19.2090 O.2    38  ALA38      -0.2867
     48  CB        23.9320   -5.8560   18.0880 C.3    38  ALA38       0.0290
     49  N         23.7940    3.0860   20.0210 N.3    62  HIS62      -0.1226
     50  CA        22.3590    3.2090   20.2810 C.3    62  HIS62       0.1752
     51  C         22.0170    2.3860   21.5350 C.2    62  HIS62       0.2597
     52  O         22.4220    1.2200   21.6630 O.2    62  HIS62      -0.2718
     53  CB        21.5180    2.6620   19.1170 C.3    62  HIS62       0.0759
     54  CG        21.6430    3.4130   17.8280 C.ar   62  HIS62       0.0818
     55  ND1       22.7310    3.2760   16.9860 N.ar   62  HIS62      -0.2268
     56  CD2       20.7800    4.2370   17.1890 C.ar   62  HIS62       0.1154
     57  CE1       22.5630    4.0530   15.9290 C.ar   62  HIS62       0.1986
     58  NE2       21.3750    4.6230   16.0180 N.ar   62  HIS62      -0.2212
     59  N         21.2400    2.9900   22.4390 N.am   63  SER63      -0.1938
     60  CA        20.7710    2.2800   23.6230 C.3    63  SER63       0.2055
     61  C         19.3940    2.8050   23.9990 C.2    63  SER63       0.2642
     62  O         19.0600    3.9500   23.7010 O.2    63  SER63      -0.2714
     63  CB        21.7510    2.4680   24.7900 C.3    63  SER63       0.2130
     64  OG        21.3660    1.7520   25.9480 O.3    63  SER63      -0.2179
     65  N         18.5960    1.9630   24.6380 N.am   64  ILE64      -0.1977
     66  CA        17.3610    2.4050   25.2670 C.3    64  ILE64       0.1596
     67  C         17.7430    2.8120   26.6890 C.2    64  ILE64       0.2287
     68  O         18.0020    1.9630   27.5530 O.2    64  ILE64      -0.2864
     69  CB        16.3090    1.3040   25.2720 C.3    64  ILE64       0.0276
     70  CG1       15.8300    1.0090   23.8450 C.3    64  ILE64       0.0022
     71  CG2       15.1320    1.6960   26.1540 C.3    64  ILE64       0.0022
     72  CD1       15.1660   -0.3560   23.7530 C.3    64  ILE64       0.0001
     73  N         17.4720    5.8580   22.3550 N.3   101  MET101     -0.1245
     74  CA        16.3150    5.4520   21.5640 C.3   101  MET101      0.1570
     75  C         15.0990    5.2160   22.4580 C.2   101  MET101      0.2261
     76  O         15.2040    4.5940   23.5150 O.2   101  MET101     -0.2867
     77  CB        16.6090    4.1780   20.7710 C.3   101  MET101      0.0387
     78  CG        17.7630    4.3040   19.8250 C.3   101  MET101      0.0595
     79  SD        17.4020    5.4200   18.4710 S.3   101  MET101     -0.1393
     80  CE        16.0940    4.5470   17.6050 C.3   101  MET101      0.0692
     81  N         12.5450    0.8700   18.6490 N.3   106  VAL106     -0.1245
     82  CA        13.5480   -0.1780   18.4480 C.3   106  VAL106      0.1561
     83  C         12.8030   -1.5020   18.2690 C.2   106  VAL106      0.2260
     84  O         12.1140   -1.9520   19.1820 O.2   106  VAL106     -0.2867
     85  CB        14.5230   -0.2840   19.6410 C.3   106  VAL106      0.0252
     86  CG1       15.5770   -1.4100   19.3970 C.3   106  VAL106      0.0019
     87  CG2       15.1850    1.0530   19.9030 C.3   106  VAL106      0.0019
     88  N         10.5170   -2.9540   21.7160 N.3   113  PHE113     -0.1241
     89  CA        10.8340   -3.0540   23.1420 C.3   113  PHE113      0.1605
     90  C          9.8160   -2.3230   24.0410 C.2   113  PHE113      0.2264
     91  O          9.8830   -2.4380   25.2650 O.2   113  PHE113     -0.2867
     92  CB        12.2540   -2.5100   23.4080 C.3   113  PHE113      0.0534
     93  CG        13.3560   -3.4940   23.1290 C.ar  113  PHE113     -0.0203
     94  CD1       13.5800   -4.5670   23.9940 C.ar  113  PHE113     -0.0042
     95  CD2       14.1760   -3.3540   22.0210 C.ar  113  PHE113     -0.0042
     96  CE1       14.6190   -5.4690   23.7560 C.ar  113  PHE113     -0.0003
     97  CE2       15.2180   -4.2580   21.7820 C.ar  113  PHE113     -0.0003
     98  CZ        15.4280   -5.3150   22.6650 C.ar  113  PHE113     -0.0000
@<TRIPOS>BOND
     1    15    14    1
     2    57    58   ar
     3    57    55   ar
     4    58    56   ar
     5    14    13    1
     6    55    54   ar
     7    56    54   ar
     8    80    79    1
     9    54    53    1
    10    13    12    1
    11    48    45    1
    12    12     9    1
    13    83    82    1
    14    83    84    2
    15    82    81    1
    16    82    85    1
    17    79    78    1
    18    46    45    1
    19    46    47    2
    20    45    44    1
    21    53    50    1
    22    10    11    2
    23    10     9    1
    24    86    85    1
    25     9     8    1
    26    85    87    1
    27    78    77    1
    28    49    50    1
    29    50    51    1
    30     8     3   am
    31    77    74    1
    32     4     3    2
    33     3     2    1
    34    51    52    2
    35    51    59   am
    36    74    73    1
    37    74    75    1
    38    88    89    1
    39    97    95   ar
    40    97    98   ar
    41    95    93   ar
    42    35    34    2
    43    59    60    1
    44    75    76    2
    45    98    96   ar
    46     2     1    1
    47     2     5    1
    48    93    92    1
    49    93    94   ar
    50    89    92    1
    51    89    90    1
    52    34    33    1
    53     1     7    1
    54    60    61    1
    55    60    63    1
    56    62    61    2
    57    72    70    1
    58    96    94   ar
    59     5     6    1
    60    70    69    1
    61    33    32    1
    62    33    36    1
    63    61    65   am
    64    90    91    2
    65     6     7    1
    66    38    40   ar
    67    38    37   ar
    68    65    66    1
    69    40    42   ar
    70    63    64    1
    71    36    37    1
    72    37    39   ar
    73    66    69    1
    74    66    67    1
    75    69    71    1
    76    42    43    1
    77    42    41   ar
    78    39    41   ar
    79    67    68    2
    80    28    27    2
    81    21    20    1
    82    21    22    1
    83    23    24    1
    84    23    22    1
    85    20    17    1
    86    27    26    1
    87    31    25    1
    88    31    30    1
    89    29    26    1
    90    29    30    1
    91    17    18    1
    92    17    16    1
    93    26    25    1
    94    19    18    2
    95    25    18   am
