@<TRIPOS>MOLECULE
tmp/3ce9A00.pdb
 98 93 0 0 0
SMALL
GASTEIGER

@<TRIPOS>ATOM
      1  N         45.7560   36.9250  -11.9430 N.3    35  TYR35      -0.1241
      2  CA        45.6320   37.3920  -10.5740 C.3    35  TYR35       0.1605
      3  C         45.9390   36.2610   -9.6230 C.2    35  TYR35       0.2264
      4  O         45.2850   35.2230   -9.6570 O.2    35  TYR35      -0.2867
      5  CB        44.2410   37.9700  -10.3400 C.3    35  TYR35       0.0534
      6  CG        44.0490   39.2770  -11.0820 C.ar   35  TYR35      -0.0201
      7  CD1       43.7720   39.2820  -12.4300 C.ar   35  TYR35      -0.0009
      8  CD2       44.1890   40.5080  -10.4390 C.ar   35  TYR35      -0.0009
      9  CE1       43.6240   40.4900  -13.1430 C.ar   35  TYR35       0.0417
     10  CE2       44.0230   41.7040  -11.1300 C.ar   35  TYR35       0.0417
     11  CZ        43.7410   41.6830  -12.4890 C.ar   35  TYR35       0.1957
     12  OH        43.5820   42.8640  -13.2000 O.3    35  TYR35      -0.2866
     13  N         49.1480   40.2990  -11.3690 N.3    63  GLU63      -0.1231
     14  CA        48.8460   41.0570  -10.1660 C.3    63  GLU63       0.1699
     15  C         48.5390   40.1690   -8.9990 C.2    63  GLU63       0.2593
     16  O         48.3190   38.9770   -9.1520 O.2    63  GLU63      -0.2718
     17  CB        47.6020   41.8850  -10.3650 C.3    63  GLU63       0.0402
     18  CG        47.5120   42.6490  -11.6690 C.3    63  GLU63       0.1161
     19  CD        48.3410   43.9540  -11.6880 C.2    63  GLU63       0.3649
     20  OE1       48.8970   44.3570  -10.6400 O.co2  63  GLU63      -0.2457
     21  OE2       48.4110   44.5850  -12.7680 O.co2  63  GLU63      -0.2457
     22  N         48.4900   40.8110   -7.8420 N.am   64  THR64      -0.1939
     23  CA        48.1770   40.1650   -6.5870 C.3    64  THR64       0.2028
     24  C         46.8390   40.6220   -6.0850 C.2    64  THR64       0.2642
     25  O         46.5280   41.8030   -6.1160 O.2    64  THR64      -0.2714
     26  CB        49.2290   40.5100   -5.5090 C.3    64  THR64       0.1808
     27  OG1       50.5280   40.2260   -6.0280 O.3    64  THR64      -0.2208
     28  CG2       48.9710   39.7110   -4.2300 C.3    64  THR64       0.0379
     29  N         46.0760   39.6690   -5.5790 N.am   65  VAL65      -0.1963
     30  CA        44.8260   39.9500   -4.9100 C.3    65  VAL65       0.1727
     31  C         45.0320   39.9980   -3.4140 C.2    65  VAL65       0.2616
     32  O         45.4870   39.0270   -2.8150 O.2    65  VAL65      -0.2715
     33  CB        43.7780   38.8570   -5.1980 C.3    65  VAL65       0.0290
     34  CG1       42.4620   39.2440   -4.5860 C.3    65  VAL65       0.0023
     35  CG2       43.6330   38.6250   -6.6760 C.3    65  VAL65       0.0023
     36  N         44.6890   41.1310   -2.8130 N.am   66  LYS66      -0.1963
     37  CA        44.9510   41.3750   -1.3860 C.3    66  LYS66       0.1728
     38  C         43.7010   41.3720   -0.4720 C.2    66  LYS66       0.2616
     39  O         43.8440   41.3350    0.7590 O.2    66  LYS66      -0.2715
     40  CB        45.7250   42.7010   -1.2160 C.3    66  LYS66       0.0311
     41  CG        47.0880   42.6690   -1.8670 C.3    66  LYS66       0.0038
     42  CD        48.0160   43.7490   -1.3440 C.3    66  LYS66       0.0206
     43  CE        49.4540   43.4620   -1.7700 C.3    66  LYS66       0.1093
     44  NZ        49.9460   42.1560   -1.2280 N.3    66  LYS66      -0.1314
     45  N         42.4910   41.3910   -1.0440 N.am   67  ASN67      -0.1972
     46  CA        41.2520   41.4990   -0.2490 C.3    67  ASN67       0.1688
     47  C         39.9770   41.1370   -1.0040 C.2    67  ASN67       0.2292
     48  O         39.9780   41.0020   -2.2090 O.2    67  ASN67      -0.2864
     49  CB        41.0950   42.9240    0.2760 C.3    67  ASN67       0.1181
     50  CG        40.8120   43.9000   -0.8230 C.2    67  ASN67       0.2629
     51  OD1       40.0410   43.5950   -1.7300 O.2    67  ASN67      -0.2716
     52  ND2       41.4340   45.0770   -0.7650 N.am   67  ASN67      -0.0877
     53  N         37.2190   47.9710   -3.2640 N.3    72  GLU72      -0.1231
     54  CA        38.5540   47.8090   -3.8470 C.3    72  GLU72       0.1699
     55  C         38.4380   46.9380   -5.1090 C.2    72  GLU72       0.2592
     56  O         39.1080   47.1800   -6.1300 O.2    72  GLU72      -0.2718
     57  CB        39.5890   47.2480   -2.8370 C.3    72  GLU72       0.0402
     58  CG        40.7170   48.2140   -2.5140 C.3    72  GLU72       0.1161
     59  CD        41.4800   48.6600   -3.7530 C.2    72  GLU72       0.3649
     60  OE1       41.7570   47.8150   -4.6210 O.co2  72  GLU72      -0.2457
     61  OE2       41.7950   49.8600   -3.8730 O.co2  72  GLU72      -0.2457
     62  N         37.5430   45.9600   -5.0550 N.am   73  ILE73      -0.1980
     63  CA        37.3220   45.0690   -6.1850 C.3    73  ILE73       0.1595
     64  C         36.7870   45.8360   -7.3920 C.2    73  ILE73       0.2287
     65  O         37.2890   45.6800   -8.5130 O.2    73  ILE73      -0.2864
     66  CB        36.3820   43.9120   -5.8320 C.3    73  ILE73       0.0276
     67  CG1       37.0910   42.9680   -4.8820 C.3    73  ILE73       0.0022
     68  CG2       35.9960   43.1300   -7.0700 C.3    73  ILE73       0.0022
     69  CD1       36.2010   41.8500   -4.3310 C.3    73  ILE73       0.0001
     70  N         39.5280   48.0110   -8.7760 N.3    76  ASN76      -0.1240
     71  CA        40.4750   47.2140   -9.5390 C.3    76  ASN76       0.1653
     72  C         39.8610   46.6680  -10.8330 C.2    76  ASN76       0.2266
     73  O         40.5550   46.5720  -11.8650 O.2    76  ASN76      -0.2867
     74  CB        41.0960   46.1200   -8.6890 C.3    76  ASN76       0.1155
     75  CG        42.0740   46.6950   -7.6590 C.2    76  ASN76       0.2627
     76  OD1       42.4960   47.8290   -7.7750 O.2    76  ASN76      -0.2716
     77  ND2       42.4090   45.9180   -6.6420 N.am   76  ASN76      -0.0877
     78  N         40.1190   49.0310  -13.6440 N.3    79  LYS79      -0.1245
     79  CA        41.5140   49.3570  -13.9750 C.3    79  LYS79       0.1561
     80  C         42.0190   48.3390  -15.0000 C.2    79  LYS79       0.2260
     81  O         43.0470   48.5320  -15.6320 O.2    79  LYS79      -0.2867
     82  CB        42.4000   49.3610  -12.7170 C.3    79  LYS79       0.0271
     83  CG        42.4240   50.7030  -12.0100 C.3    79  LYS79       0.0035
     84  CD        43.4840   50.7140  -10.9060 C.3    79  LYS79       0.0206
     85  CE        43.2700   51.8480   -9.9160 C.3    79  LYS79       0.1093
     86  NZ        44.4670   51.9120   -9.0300 N.3    79  LYS79      -0.1314
     87  N         37.3470   37.0930   -5.6320 N.3    98  ALA98      -0.1231
     88  CA        37.6200   38.5030   -5.9780 C.3    98  ALA98       0.1694
     89  C         37.7650   38.6440   -7.4820 C.2    98  ALA98       0.2591
     90  O         37.2370   39.5870   -8.0970 O.2    98  ALA98      -0.2718
     91  CB        38.8900   39.0020   -5.2930 C.3    98  ALA98       0.0304
     92  N         38.5010   37.7120   -8.0810 N.am   99  VAL99      -0.1980
     93  CA        38.8270   37.7890   -9.5120 C.3    99  VAL99       0.1595
     94  C         37.5770   37.4370  -10.2950 C.2    99  VAL99       0.2287
     95  O         37.2330   38.0820  -11.2800 O.2    99  VAL99      -0.2864
     96  CB        39.9920   36.8510   -9.8420 C.3    99  VAL99       0.0276
     97  CG1       40.3320   36.8890  -11.3090 C.3    99  VAL99       0.0022
     98  CG2       41.2090   37.2690   -9.0090 C.3    99  VAL99       0.0022
@<TRIPOS>BOND
     1    81    80    2
     2    80    79    1
     3    79    78    1
     4    79    82    1
     5    12    11    1
     6     9    11   ar
     7     9     7   ar
     8    21    19   ar
     9    82    83    1
    10    11    10   ar
    11     7     6   ar
    12    83    84    1
    13     1     2    1
    14    73    72    2
    15    19    18    1
    16    19    20   ar
    17    18    17    1
    18    13    14    1
    19    97    96    1
    20    95    94    2
    21    10     8   ar
    22     6     8   ar
    23     6     5    1
    24    84    85    1
    25    72    71    1
    26     2     5    1
    27     2     3    1
    28    17    14    1
    29    94    93    1
    30    14    15    1
    31    85    86    1
    32    96    93    1
    33    96    98    1
    34     4     3    2
    35    71    70    1
    36    71    74    1
    37    93    92    1
    38    16    15    2
    39    15    22   am
    40    74    75    1
    41    65    64    2
    42    90    89    2
    43    92    89   am
    44    22    23    1
    45    76    75    2
    46    75    77   am
    47    89    88    1
    48    64    63    1
    49    68    66    1
    50    35    33    1
    51    23    24    1
    52    23    26    1
    53    63    66    1
    54    63    62    1
    55    56    55    2
    56    25    24    2
    57    24    29   am
    58    27    26    1
    59    88    87    1
    60    88    91    1
    61    66    67    1
    62    29    30    1
    63    26    28    1
    64    33    30    1
    65    33    34    1
    66    55    62   am
    67    55    54    1
    68    30    31    1
    69    67    69    1
    70    60    59   ar
    71    61    59   ar
    72    54    53    1
    73    54    57    1
    74    59    58    1
    75    31    32    2
    76    31    36   am
    77    57    58    1
    78    36    37    1
    79    48    47    2
    80    41    42    1
    81    41    40    1
    82    43    42    1
    83    43    44    1
    84    51    50    2
    85    37    40    1
    86    37    38    1
    87    45    38   am
    88    45    46    1
    89    47    46    1
    90    50    52   am
    91    50    49    1
    92    38    39    2
    93    46    49    1
