@<TRIPOS>MOLECULE
tmp/3cejB00.pdb
 171 162 0 0 0
SMALL
GASTEIGER

@<TRIPOS>ATOM
      1  N        100.2880   24.5280   65.7170 N.3    66  GLU66      -0.1245
      2  CA       101.3250   23.5610   65.3370 C.3    66  GLU66       0.1567
      3  C        100.8880   22.0950   65.4430 C.2    66  GLU66       0.2260
      4  O        100.5920   21.6000   66.5370 O.2    66  GLU66      -0.2867
      5  CB       102.6060   23.7660   66.1660 C.3    66  GLU66       0.0388
      6  CG       103.6950   24.6220   65.5050 C.3    66  GLU66       0.1160
      7  CD       104.8680   24.9440   66.4500 C.2    66  GLU66       0.3649
      8  OE1      105.1760   26.1490   66.6190 O.co2  66  GLU66      -0.2457
      9  OE2      105.4780   24.0040   67.0230 O.co2  66  GLU66      -0.2457
     10  N        107.0370   23.4530   64.9550 N.3   111  ASN111     -0.1225
     11  CA       108.4080   23.8330   65.3110 C.3   111  ASN111      0.1785
     12  C        109.2160   22.7150   65.9590 C.2   111  ASN111      0.2598
     13  O        110.3240   22.4090   65.5160 O.2   111  ASN111     -0.2718
     14  CB       108.4080   25.0470   66.2400 C.3   111  ASN111      0.1169
     15  CG       108.2770   26.3430   65.4970 C.2   111  ASN111      0.2627
     16  OD1      108.4400   26.3930   64.2770 O.2   111  ASN111     -0.2716
     17  ND2      107.9890   27.4160   66.2300 N.am  111  ASN111     -0.0877
     18  N        108.6620   22.1230   67.0140 N.am  112  GLY112     -0.1942
     19  CA       109.3590   21.1080   67.7770 C.3   112  GLY112      0.2014
     20  C        108.3790   20.2240   68.5050 C.2   112  GLY112      0.2639
     21  O        107.2780   19.9780   68.0060 O.2   112  GLY112     -0.2714
     22  N        108.7860   19.7670   69.6930 N.am  113  GLY113     -0.1939
     23  CA       108.0150   18.8350   70.5200 C.3   113  GLY113      0.2014
     24  C        106.5650   19.2090   70.7780 C.2   113  GLY113      0.2638
     25  O        105.7010   18.3200   70.8730 O.2   113  GLY113     -0.2714
     26  N        106.3030   20.5160   70.8950 N.am  114  LEU114     -0.1977
     27  CA       104.9480   21.0350   71.1020 C.3   114  LEU114      0.1596
     28  C        104.1010   20.7400   69.8760 C.2   114  LEU114      0.2287
     29  O        102.9390   20.3290   70.0060 O.2   114  LEU114     -0.2864
     30  CB       104.9560   22.5450   71.4090 C.3   114  LEU114      0.0297
     31  CG       103.6690   23.2330   71.9070 C.3   114  LEU114      0.0022
     32  CD1      103.9780   24.5970   72.4600 C.3   114  LEU114      0.0001
     33  CD2      102.6110   23.3630   70.8330 C.3   114  LEU114      0.0001
     34  N        103.3090   17.1450   70.0240 N.3   117  LEU117     -0.1245
     35  CA       102.3590   16.7410   71.0440 C.3   117  LEU117      0.1561
     36  C        100.9570   16.7510   70.4740 C.2   117  LEU117      0.2260
     37  O        100.1570   15.8500   70.7480 O.2   117  LEU117     -0.2867
     38  CB       102.4370   17.6370   72.2690 C.3   117  LEU117      0.0270
     39  CG       101.9700   16.8870   73.5180 C.3   117  LEU117      0.0019
     40  CD1      102.8920   15.7120   73.9010 C.3   117  LEU117      0.0001
     41  CD2      101.8640   17.8410   74.6610 C.3   117  LEU117      0.0001
     42  N        111.0640   28.5070   67.8730 N.3   250  ASP250     -0.1225
     43  CA       111.0260   27.4880   68.8910 C.3   250  ASP250      0.1805
     44  C        111.3780   28.1520   70.2160 C.2   250  ASP250      0.2597
     45  O        112.4480   28.7580   70.3410 O.2   250  ASP250     -0.2718
     46  CB       112.0270   26.3910   68.5500 C.3   250  ASP250      0.1424
     47  CG       111.9720   25.2440   69.5230 C.2   250  ASP250      0.3668
     48  OD1      112.5090   25.3760   70.6550 O.co2 250  ASP250     -0.2456
     49  OD2      111.3810   24.2120   69.1440 O.co2 250  ASP250     -0.2456
     50  N        110.4720   28.0450   71.1890 N.am  251  ASN251     -0.1974
     51  CA       110.6650   28.6340   72.5220 C.3   251  ASN251      0.1688
     52  C        111.0680   30.1280   72.4950 C.2   251  ASN251      0.2292
     53  O        111.8020   30.5960   73.3720 O.2   251  ASN251     -0.2864
     54  CB       111.6740   27.8020   73.3650 C.3   251  ASN251      0.1181
     55  CG       111.0150   26.6350   74.1470 C.2   251  ASN251      0.2629
     56  OD1      110.8640   25.5290   73.6200 O.2   251  ASN251     -0.2716
     57  ND2      110.6640   26.8780   75.4190 N.am  251  ASN251     -0.0877
     58  N         99.3580   25.6140   74.4660 N.3   298  ASP298     -0.1239
     59  CA       100.1260   26.8150   74.8510 C.3   298  ASP298      0.1674
     60  C         99.2410   28.0430   74.6860 C.2   298  ASP298      0.2266
     61  O         98.0450   27.9250   74.4270 O.2   298  ASP298     -0.2867
     62  CB       101.4930   26.9600   74.1300 C.3   298  ASP298      0.1410
     63  CG       102.5740   27.6970   74.9970 C.2   298  ASP298      0.3668
     64  OD1      102.2180   28.4220   75.9620 O.co2 298  ASP298     -0.2456
     65  OD2      103.7910   27.5490   74.7140 O.co2 298  ASP298     -0.2456
     66  N         99.4500   30.5120   72.4270 N.3   300  HIS300     -0.1241
     67  CA        99.1810   30.9070   71.0290 C.3   300  HIS300      0.1621
     68  C         97.6900   31.1080   70.6620 C.2   300  HIS300      0.2264
     69  O         97.3120   32.1660   70.1410 O.2   300  HIS300     -0.2867
     70  CB        99.8650   29.9490   70.0390 C.3   300  HIS300      0.0745
     71  CG       101.1740   29.3940   70.5220 C.ar  300  HIS300      0.0817
     72  ND1      101.4230   28.0390   70.5990 N.ar  300  HIS300     -0.2268
     73  CD2      102.3030   30.0060   70.9510 C.ar  300  HIS300      0.1154
     74  CE1      102.6500   27.8420   71.0480 C.ar  300  HIS300      0.1986
     75  NE2      103.2050   29.0190   71.2710 N.ar  300  HIS300     -0.2212
     76  N        103.2100   25.2800   78.3430 N.3   336  HIS336     -0.1226
     77  CA       104.3060   24.4940   77.7680 C.3   336  HIS336      0.1752
     78  C        105.6550   25.1450   77.9920 C.2   336  HIS336      0.2596
     79  O        106.7030   24.5420   77.7410 O.2   336  HIS336     -0.2718
     80  CB       104.1240   24.3680   76.2570 C.3   336  HIS336      0.0759
     81  CG       103.2130   23.2630   75.8450 C.ar  336  HIS336      0.0818
     82  ND1      103.4470   21.9470   76.1730 N.ar  336  HIS336     -0.2268
     83  CD2      102.0760   23.2750   75.1120 C.ar  336  HIS336      0.1154
     84  CE1      102.4850   21.1950   75.6720 C.ar  336  HIS336      0.1986
     85  NE2      101.6430   21.9760   75.0200 N.ar  336  HIS336     -0.2212
     86  N        105.6200   26.3870   78.4470 N.am  337  THR337     -0.1953
     87  CA       106.7850   27.2500   78.4040 C.3   337  THR337      0.1897
     88  C        107.4790   27.3280   79.7680 C.2   337  THR337      0.2313
     89  O        106.8460   27.0910   80.7990 O.2   337  THR337     -0.2863
     90  CB       106.3690   28.6500   77.8720 C.3   337  THR337      0.1794
     91  OG1      105.0330   28.9410   78.3080 O.3   337  THR337     -0.2208
     92  CG2      106.3570   28.6560   76.3510 C.3   337  THR337      0.0378
     93  N        109.7720   33.0640   75.7650 N.3   342  ALA342     -0.1245
     94  CA       108.8040   32.2490   75.0320 C.3   342  ALA342      0.1562
     95  C        107.3580   32.4560   75.5070 C.2   342  ALA342      0.2260
     96  O        106.4460   31.7530   75.0470 O.2   342  ALA342     -0.2867
     97  CB       109.1840   30.7820   75.1340 C.3   342  ALA342      0.0290
     98  N        103.5110   19.9210   81.7870 N.3   414  VAL414     -0.1245
     99  CA       103.6980   18.6950   81.0240 C.3   414  VAL414      0.1561
    100  C        104.4790   17.6140   81.7600 C.2   414  VAL414      0.2260
    101  O        104.6590   16.5170   81.2360 O.2   414  VAL414     -0.2867
    102  CB       104.3080   18.9860   79.6370 C.3   414  VAL414      0.0252
    103  CG1      103.3060   19.7550   78.7880 C.3   414  VAL414      0.0019
    104  CG2      105.5900   19.7620   79.7580 C.3   414  VAL414      0.0019
    105  N        103.4990   14.3460   79.7590 N.3   443  ASN443     -0.1240
    106  CA       103.5100   14.0870   78.3200 C.3   443  ASN443      0.1653
    107  C        103.7060   12.6110   77.9520 C.2   443  ASN443      0.2266
    108  O        104.1620   11.8070   78.7690 O.2   443  ASN443     -0.2867
    109  CB       104.5530   14.9710   77.6170 C.3   443  ASN443      0.1155
    110  CG       104.0320   16.3700   77.3120 C.2   443  ASN443      0.2627
    111  OD1      102.9140   16.7330   77.6820 O.2   443  ASN443     -0.2716
    112  ND2      104.8460   17.1610   76.6330 N.am  443  ASN443     -0.0877
    113  N        119.9420   26.3060   75.7550 N.3   532  TYR532     -0.1227
    114  CA       119.4100   25.6870   76.9680 C.3   532  TYR532      0.1736
    115  C        119.4430   24.1790   76.9200 C.2   532  TYR532      0.2595
    116  O        119.5690   23.5260   77.9520 O.2   532  TYR532     -0.2718
    117  CB       117.9920   26.2110   77.2870 C.3   532  TYR532      0.0548
    118  CG       116.8180   25.4010   76.7720 C.ar  532  TYR532     -0.0200
    119  CD1      116.4000   24.2370   77.4240 C.ar  532  TYR532     -0.0009
    120  CD2      116.0970   25.8220   75.6600 C.ar  532  TYR532     -0.0009
    121  CE1      115.3130   23.4940   76.9590 C.ar  532  TYR532      0.0417
    122  CE2      115.0090   25.0840   75.1810 C.ar  532  TYR532      0.0417
    123  CZ       114.6210   23.9230   75.8340 C.ar  532  TYR532      0.1957
    124  OH       113.5420   23.2060   75.3670 O.3   532  TYR532     -0.2866
    125  N        119.3180   23.6310   75.7200 N.am  533  LYS533     -0.1980
    126  CA       119.3580   22.1950   75.5520 C.3   533  LYS533      0.1596
    127  C        120.8020   21.7040   75.6220 C.2   533  LYS533      0.2287
    128  O        121.0490   20.4980   75.7330 O.2   533  LYS533     -0.2864
    129  CB       118.6780   21.7860   74.2440 C.3   533  LYS533      0.0298
    130  CG       117.1600   22.0030   74.2350 C.3   533  LYS533      0.0038
    131  CD       116.5080   21.3630   73.0060 C.3   533  LYS533      0.0206
    132  CE       115.0010   21.6230   72.9430 C.3   533  LYS533      0.1093
    133  NZ       114.2480   20.7090   73.8520 N.3   533  LYS533     -0.1314
    134  N        114.7760   23.6820   82.7890 N.3   630  THR630     -0.1203
    135  CA       114.6330   24.4580   81.5560 C.3   630  THR630      0.1994
    136  C        113.7420   23.7010   80.5540 C.2   630  THR630      0.2618
    137  O        113.1560   24.3100   79.6480 O.2   630  THR630     -0.2717
    138  CB       115.9950   24.7930   80.8880 C.3   630  THR630      0.1784
    139  OG1      116.6360   23.5810   80.4480 O.3   630  THR630     -0.2211
    140  CG2      116.9170   25.5800   81.8350 C.3   630  THR630      0.0376
    141  N        113.6580   22.3770   80.7170 N.am  631  GLU631     -0.1965
    142  CA       112.7470   21.5470   79.9310 C.3   631  GLU631      0.1733
    143  C        111.5200   21.2780   80.7630 C.2   631  GLU631      0.2616
    144  O        111.6190   20.7880   81.8880 O.2   631  GLU631     -0.2715
    145  CB       113.3890   20.2090   79.5530 C.3   631  GLU631      0.0429
    146  CG       112.7550   19.5150   78.3500 C.3   631  GLU631      0.1163
    147  CD       113.0780   20.2190   77.0400 C.2   631  GLU631      0.3649
    148  OE1      114.2690   20.4560   76.7440 O.co2 631  GLU631     -0.2457
    149  OE2      112.1350   20.5360   76.2990 O.co2 631  GLU631     -0.2457
    150  N        110.3620   21.6110   80.2130 N.am  632  ALA632     -0.1963
    151  CA       109.1180   21.3540   80.9010 C.3   632  ALA632      0.1728
    152  C        108.8930   19.8320   81.0200 C.2   632  ALA632      0.2617
    153  O        108.5110   19.3370   82.0800 O.2   632  ALA632     -0.2715
    154  CB       107.9840   22.0490   80.1910 C.3   632  ALA632      0.0334
    155  N        109.1710   19.0910   79.9470 N.am  633  SER633     -0.1936
    156  CA       109.0760   17.6250   79.9680 C.3   633  SER633      0.2055
    157  C        109.9960   16.9410   78.9550 C.2   633  SER633      0.2644
    158  O        110.7310   16.0080   79.2980 O.2   633  SER633     -0.2714
    159  CB       107.6310   17.1670   79.7380 C.3   633  SER633      0.2130
    160  OG       107.5780   15.9430   79.0240 O.3   633  SER633     -0.2179
    161  N        109.9430   17.4120   77.7110 N.am  634  GLY634     -0.1939
    162  CA       110.4900   16.6690   76.5790 C.3   634  GLY634      0.2014
    163  C        109.5180   15.5800   76.1360 C.2   634  GLY634      0.2639
    164  O        108.7070   15.0910   76.9310 O.2   634  GLY634     -0.2714
    165  N        109.5720   15.2290   74.8540 N.am  635  THR635     -0.1950
    166  CA       108.9050   14.0340   74.3460 C.3   635  THR635      0.1897
    167  C        109.9370   13.1720   73.6480 C.2   635  THR635      0.2313
    168  O        109.8580   11.9550   73.6930 O.2   635  THR635     -0.2863
    169  CB       107.7460   14.3440   73.3800 C.3   635  THR635      0.1794
    170  OG1      108.1820   15.2630   72.3750 O.3   635  THR635     -0.2208
    171  CG2      106.5840   14.9470   74.1240 C.3   635  THR635      0.0378
@<TRIPOS>BOND
     1    16    15    2
     2    10    11    1
     3    11    12    1
     4    11    14    1
     5     2     3    1
     6     2     1    1
     7     2     5    1
     8     3     4    2
     9    15    17   am
    10    15    14    1
    11     6     5    1
    12     6     7    1
    13    13    12    2
    14    12    18   am
    15     7     8   ar
    16     7     9   ar
    17    18    19    1
    18    19    20    1
    19    42    43    1
    20    21    20    2
    21    20    22   am
    22    46    43    1
    23    46    47    1
    24    43    44    1
    25    49    47   ar
    26    47    48   ar
    27    22    23    1
    28    28    29    2
    29    28    27    1
    30    34    35    1
    31    70    71    1
    32    70    67    1
    33    69    68    2
    34    44    45    2
    35    44    50   am
    36    36    37    2
    37    36    35    1
    38    23    24    1
    39    71    72   ar
    40    71    73   ar
    41    72    74   ar
    42    68    67    1
    43    24    25    2
    44    24    26   am
    45    33    31    1
    46    26    27    1
    47    73    75   ar
    48    67    66    1
    49    35    38    1
    50    74    75   ar
    51    27    30    1
    52    50    51    1
    53    30    31    1
    54    31    32    1
    55    38    39    1
    56   170   169    1
    57    52    51    1
    58    52    53    2
    59    51    54    1
    60   132   131    1
    61   132   133    1
    62   131   130    1
    63    54    55    1
    64   169   171    1
    65   169   166    1
    66    39    40    1
    67    39    41    1
    68    56    55    2
    69   167   168    2
    70   167   166    1
    71    62    59    1
    72    62    63    1
    73    55    57   am
    74   130   129    1
    75   129   126    1
    76   166   165    1
    77    61    60    2
    78    58    59    1
    79    60    59    1
    80    65    63   ar
    81   165   163   am
    82    63    64   ar
    83    85    83   ar
    84    85    84   ar
    85    94    97    1
    86    94    95    1
    87    94    93    1
    88    96    95    2
    89    83    81   ar
    90   122   120   ar
    91   122   123   ar
    92   124   123    1
    93   126   127    1
    94   126   125    1
    95   127   128    2
    96   120   118   ar
    97    84    82   ar
    98   125   115   am
    99   113   114    1
   100   123   121   ar
   101    81    82   ar
   102    81    80    1
   103   163   162    1
   104   163   164    2
   105    80    77    1
   106   149   147   ar
   107    92    90    1
   108   162   161    1
   109   112   110   am
   110   148   147   ar
   111   118   117    1
   112   118   119   ar
   113   115   114    1
   114   115   116    2
   115   121   119   ar
   116   114   117    1
   117   147   146    1
   118   110   109    1
   119   110   111    2
   120   109   106    1
   121   161   157   am
   122    79    78    2
   123    77    78    1
   124    77    76    1
   125    90    91    1
   126    90    87    1
   127   107   106    1
   128   107   108    2
   129    78    86   am
   130   106   105    1
   131   146   145    1
   132    87    86    1
   133    87    88    1
   134   103   102    1
   135   157   158    2
   136   157   156    1
   137   160   159    1
   138   145   142    1
   139   102   104    1
   140   102    99    1
   141   137   136    2
   142   159   156    1
   143    88    89    2
   144   142   141    1
   145   142   143    1
   146   155   156    1
   147   155   152   am
   148   154   151    1
   149   150   143   am
   150   150   151    1
   151   139   138    1
   152   136   141   am
   153   136   135    1
   154   143   144    2
   155   138   135    1
   156   138   140    1
   157   151   152    1
   158   152   153    2
   159    99   100    1
   160    99    98    1
   161   101   100    2
   162   135   134    1
