@<TRIPOS>MOLECULE
tmp/3cejB03.pdb
 160 154 0 0 0
SMALL
GASTEIGER

@<TRIPOS>ATOM
      1  N         85.5630    7.1920   58.2180 N.3    45  TRP45      -0.1227
      2  CA        85.6320    8.6240   58.4230 C.3    45  TRP45       0.1737
      3  C         84.2240    9.2030   58.4370 C.2    45  TRP45       0.2595
      4  O         83.9280   10.0860   59.2280 O.2    45  TRP45      -0.2718
      5  CB        86.4940    9.3040   57.3530 C.3    45  TRP45       0.0564
      6  CG        87.0390   10.6260   57.7760 C.ar   45  TRP45       0.0003
      7  CD1       86.9970   11.1640   59.0300 C.ar   45  TRP45       0.0946
      8  CD2       87.7440   11.5600   56.9640 C.ar   45  TRP45       0.0152
      9  NE1       87.6170   12.3860   59.0440 N.ar   45  TRP45      -0.2442
     10  CE2       88.0930   12.6500   57.7880 C.ar   45  TRP45       0.0810
     11  CE3       88.1130   11.5870   55.6240 C.ar   45  TRP45       0.0012
     12  CZ2       88.7890   13.7550   57.3110 C.ar   45  TRP45       0.0191
     13  CZ3       88.8030   12.6840   55.1500 C.ar   45  TRP45       0.0001
     14  CH2       89.1340   13.7550   55.9900 C.ar   45  TRP45       0.0015
     15  N         83.3540    8.6760   57.5820 N.am   46  ILE46      -0.1980
     16  CA        82.0010    9.2090   57.4420 C.3    46  ILE46       0.1595
     17  C         81.0870    8.7850   58.5900 C.2    46  ILE46       0.2287
     18  O         80.4010    9.6240   59.1900 O.2    46  ILE46      -0.2864
     19  CB        81.4080    8.8540   56.0740 C.3    46  ILE46       0.0276
     20  CG1       82.3190    9.4400   54.9900 C.3    46  ILE46       0.0022
     21  CG2       79.9670    9.3730   55.9610 C.3    46  ILE46       0.0022
     22  CD1       82.0160    8.9810   53.6060 C.3    46  ILE46       0.0001
     23  N         82.0790   10.4880   61.7910 N.3    49  GLN49      -0.1231
     24  CA        81.6590   11.8830   61.8060 C.3    49  GLN49       0.1698
     25  C         80.1580   12.0520   61.8880 C.2    49  GLN49       0.2592
     26  O         79.6710   12.9980   62.5180 O.2    49  GLN49      -0.2718
     27  CB        82.2280   12.6330   60.6090 C.3    49  GLN49       0.0381
     28  CG        83.7500   12.8000   60.6640 C.3    49  GLN49       0.0905
     29  CD        84.2780   13.0790   62.0520 C.2    49  GLN49       0.2608
     30  OE1       83.7700   13.9480   62.7660 O.2    49  GLN49      -0.2717
     31  NE2       85.3140   12.3500   62.4390 N.am   49  GLN49      -0.0878
     32  N         79.4300   11.1340   61.2580 N.am   50  GLN50      -0.1979
     33  CA        77.9790   11.0960   61.4050 C.3    50  GLN50       0.1601
     34  C         77.6010   10.6520   62.8190 C.2    50  GLN50       0.2287
     35  O         76.7220   11.2470   63.4300 O.2    50  GLN50      -0.2864
     36  CB        77.3250   10.1890   60.3540 C.3    50  GLN50       0.0394
     37  CG        75.8450   10.5040   60.1350 C.3    50  GLN50       0.0908
     38  CD        75.0190    9.3330   59.6410 C.2    50  GLN50       0.2608
     39  OE1       75.4800    8.5060   58.8550 O.2    50  GLN50      -0.2717
     40  NE2       73.7760    9.2710   60.0960 N.am   50  GLN50      -0.0878
     41  N         77.8820   13.4940   65.0340 N.3    53  TYR53      -0.1241
     42  CA        76.7880   14.3710   64.6530 C.3    53  TYR53       0.1605
     43  C         75.4360   13.8340   65.1540 C.2    53  TYR53       0.2264
     44  O         74.6280   14.6010   65.6870 O.2    53  TYR53      -0.2867
     45  CB        76.8180   14.6280   63.1310 C.3    53  TYR53       0.0534
     46  CG        75.5820   15.2950   62.5780 C.ar   53  TYR53      -0.0201
     47  CD1       75.3680   16.6600   62.7400 C.ar   53  TYR53      -0.0009
     48  CD2       74.6240   14.5510   61.9060 C.ar   53  TYR53      -0.0009
     49  CE1       74.2280   17.2640   62.2480 C.ar   53  TYR53       0.0417
     50  CE2       73.4830   15.1420   61.4050 C.ar   53  TYR53       0.0417
     51  CZ        73.2830   16.4970   61.5780 C.ar   53  TYR53       0.1957
     52  OH        72.1310   17.0690   61.0740 O.3    53  TYR53      -0.2866
     53  N         82.4290   16.8850   72.5810 N.3    59  ARG59      -0.1245
     54  CA        83.5050   16.9220   71.5840 C.3    59  ARG59       0.1563
     55  C         84.7460   17.6910   72.0590 C.2    59  ARG59       0.2260
     56  O         84.6550   18.8460   72.4870 O.2    59  ARG59      -0.2867
     57  CB        82.9920   17.4990   70.2550 C.3    59  ARG59       0.0307
     58  CG        82.0120   16.6110   69.5070 C.3    59  ARG59       0.0489
     59  CD        81.3170   17.3640   68.3870 C.3    59  ARG59       0.2205
     60  NE        80.2530   16.5830   67.7500 N.pl3  59  ARG59      -0.0865
     61  CZ        79.2520   17.1050   67.0350 C.cat  59  ARG59       0.5346
     62  NH1       79.1570   18.4160   66.8570 N.pl3  59  ARG59       0.1354
     63  NH2       78.3270   16.3200   66.5010 N.pl3  59  ARG59       0.1354
     64  N         88.5970   16.6120   67.6240 N.3   133  TYR133     -0.1241
     65  CA        89.0810   17.2770   66.4130 C.3   133  TYR133      0.1605
     66  C         90.4240   17.9270   66.6990 C.2   133  TYR133      0.2264
     67  O         90.8250   18.0440   67.8650 O.2   133  TYR133     -0.2867
     68  CB        88.1030   18.3610   65.9520 C.3   133  TYR133      0.0534
     69  CG        86.6550   17.9360   65.8650 C.ar  133  TYR133     -0.0201
     70  CD1       86.0810   17.5940   64.6430 C.ar  133  TYR133     -0.0009
     71  CD2       85.8560   17.8960   67.0060 C.ar  133  TYR133     -0.0009
     72  CE1       84.7450   17.2120   64.5600 C.ar  133  TYR133      0.0417
     73  CE2       84.5230   17.5190   66.9370 C.ar  133  TYR133      0.0417
     74  CZ        83.9670   17.1760   65.7130 C.ar  133  TYR133      0.1957
     75  OH        82.6400   16.7970   65.6540 O.3   133  TYR133     -0.2866
     76  N         91.0730   16.9290   52.3390 N.3   169  LYS169     -0.1231
     77  CA        89.9390   17.1540   51.4650 C.3   169  LYS169      0.1693
     78  C         89.3770   18.5030   51.8510 C.2   169  LYS169      0.2593
     79  O         89.0190   18.7340   53.0100 O.2   169  LYS169     -0.2718
     80  CB        88.8870   16.0500   51.6170 C.3   169  LYS169      0.0285
     81  CG        87.5170   16.3310   50.9440 C.3   169  LYS169      0.0035
     82  CD        87.4710   16.0240   49.4330 C.3   169  LYS169      0.0206
     83  CE        86.2030   16.5950   48.7920 C.3   169  LYS169      0.1093
     84  NZ        86.0390   18.0490   49.0850 N.3   169  LYS169     -0.1314
     85  N         89.3200   19.4090   50.8860 N.am  170  SER170     -0.1938
     86  CA        88.8040   20.7390   51.1640 C.3   170  SER170      0.2055
     87  C         87.3450   20.6300   51.5680 C.2   170  SER170      0.2642
     88  O         86.6350   19.6840   51.1800 O.2   170  SER170     -0.2714
     89  CB        88.9530   21.6720   49.9660 C.3   170  SER170      0.2130
     90  OG        87.8600   21.5390   49.0760 O.3   170  SER170     -0.2179
     91  N         86.9240   21.5940   52.3770 N.am  171  ARG171     -0.1977
     92  CA        85.5480   21.7320   52.7770 C.3   171  ARG171      0.1597
     93  C         85.1320   23.1190   52.3540 C.2   171  ARG171      0.2287
     94  O         85.2510   24.0540   53.1410 O.2   171  ARG171     -0.2864
     95  CB        85.4120   21.5810   54.2850 C.3   171  ARG171      0.0334
     96  CG        86.0830   20.3500   54.8660 C.3   171  ARG171      0.0492
     97  CD        85.6460   19.0740   54.1530 C.3   171  ARG171      0.2205
     98  NE        84.1940   18.9460   54.0530 N.pl3 171  ARG171     -0.0865
     99  CZ        83.4330   18.3280   54.9490 C.cat 171  ARG171      0.5346
    100  NH1       83.9770   17.7570   56.0190 N.pl3 171  ARG171      0.1354
    101  NH2       82.1220   18.2660   54.7530 N.pl3 171  ARG171      0.1354
    102  N         82.0460   24.6070   54.5480 N.3   174  PHE174     -0.1241
    103  CA        82.2910   25.0560   55.9180 C.3   174  PHE174      0.1605
    104  C         83.2370   26.2520   55.9610 C.2   174  PHE174      0.2264
    105  O         83.9810   26.4340   56.9210 O.2   174  PHE174     -0.2867
    106  CB        82.8090   23.9060   56.7860 C.3   174  PHE174      0.0534
    107  CG        81.8030   22.8230   57.0050 C.ar  174  PHE174     -0.0203
    108  CD1       80.6200   23.0860   57.6780 C.ar  174  PHE174     -0.0042
    109  CD2       82.0330   21.5410   56.5390 C.ar  174  PHE174     -0.0042
    110  CE1       79.6870   22.0850   57.8780 C.ar  174  PHE174     -0.0003
    111  CE2       81.1010   20.5350   56.7320 C.ar  174  PHE174     -0.0003
    112  CZ        79.9270   20.8060   57.3950 C.ar  174  PHE174     -0.0000
    113  N         90.0150   19.1610   55.7760 N.3   205  ASP205     -0.1239
    114  CA        89.9590   18.0210   56.6650 C.3   205  ASP205      0.1674
    115  C         90.9780   16.9490   56.3090 C.2   205  ASP205      0.2266
    116  O         91.3220   16.7310   55.1530 O.2   205  ASP205     -0.2867
    117  CB        88.5470   17.4430   56.7010 C.3   205  ASP205      0.1410
    118  CG        87.5330   18.4110   57.2970 C.2   205  ASP205      0.3668
    119  OD1       86.3300   18.0900   57.2660 O.co2 205  ASP205     -0.2456
    120  OD2       87.9180   19.4900   57.7880 O.co2 205  ASP205     -0.2456
    121  N         88.7220   13.7390   62.8270 N.3   218  THR218     -0.1218
    122  CA        89.1110   14.7960   61.9160 C.3   218  THR218      0.1862
    123  C         90.1990   15.7010   62.4980 C.2   218  THR218      0.2287
    124  O         90.3080   15.8840   63.7190 O.2   218  THR218     -0.2866
    125  CB        87.8800   15.5870   61.3710 C.3   218  THR218      0.1770
    126  OG1       87.2840   14.8520   60.2940 O.3   218  THR218     -0.2211
    127  CG2       88.2740   16.9320   60.8320 C.3   218  THR218      0.0375
    128  N         91.1520   19.5610   61.2110 N.3   220  ARG220     -0.1245
    129  CA        90.6170   20.5990   60.3510 C.3   220  ARG220      0.1563
    130  C         91.5910   21.7710   60.3010 C.2   220  ARG220      0.2260
    131  O         91.7020   22.5680   61.2450 O.2   220  ARG220     -0.2867
    132  CB        89.2430   21.0230   60.8730 C.3   220  ARG220      0.0307
    133  CG        88.4710   21.9260   59.9550 C.3   220  ARG220      0.0489
    134  CD        86.9770   21.8090   60.1930 C.3   220  ARG220      0.2205
    135  NE        86.3460   20.7760   59.3700 N.pl3 220  ARG220     -0.0865
    136  CZ        85.1060   20.8600   58.8940 C.cat 220  ARG220      0.5346
    137  NH1       84.3570   21.9320   59.1430 N.pl3 220  ARG220      0.1354
    138  NH2       84.6150   19.8790   58.1550 N.pl3 220  ARG220      0.1354
    139  N         78.7630   26.9950   65.2270 N.3   276  ARG276     -0.1231
    140  CA        77.8310   26.6720   64.1530 C.3   276  ARG276      0.1694
    141  C         77.4450   25.2040   64.2680 C.2   276  ARG276      0.2591
    142  O         76.2690   24.8640   64.1570 O.2   276  ARG276     -0.2718
    143  CB        78.4260   26.9790   62.7800 C.3   276  ARG276      0.0321
    144  CG        77.4680   26.7150   61.6240 C.3   276  ARG276      0.0489
    145  CD        78.1930   26.1810   60.4060 C.3   276  ARG276      0.2205
    146  NE        79.2930   25.2840   60.7870 N.pl3 276  ARG276     -0.0865
    147  CZ        79.2150   23.9530   60.8990 C.cat 276  ARG276      0.5346
    148  NH1       78.0770   23.3080   60.6470 N.pl3 276  ARG276      0.1354
    149  NH2       80.2910   23.2570   61.2650 N.pl3 276  ARG276      0.1354
    150  N         78.4360   24.3560   64.5400 N.am  277  ARG277     -0.1980
    151  CA        78.2280   22.9220   64.6820 C.3   277  ARG277      0.1597
    152  C         77.3720   22.5680   65.9080 C.2   277  ARG277      0.2287
    153  O         76.5150   21.6850   65.8320 O.2   277  ARG277     -0.2864
    154  CB        79.5760   22.1880   64.7210 C.3   277  ARG277      0.0334
    155  CG        79.5130   20.7280   64.2490 C.3   277  ARG277      0.0492
    156  CD        80.7460   19.9230   64.6530 C.3   277  ARG277      0.2205
    157  NE        81.8310   20.0720   63.6960 N.pl3 277  ARG277     -0.0865
    158  CZ        82.8420   20.9190   63.8360 C.cat 277  ARG277      0.5346
    159  NH1       82.9270   21.7020   64.9030 N.pl3 277  ARG277      0.1354
    160  NH2       83.7740   20.9810   62.9010 N.pl3 277  ARG277      0.1354
@<TRIPOS>BOND
     1    83    84    1
     2    83    82    1
     3    90    89    1
     4    82    81    1
     5    89    86    1
     6    85    86    1
     7    85    78   am
     8    81    80    1
     9    86    87    1
    10    88    87    2
    11    77    80    1
    12    77    78    1
    13    77    76    1
    14    87    91   am
    15    78    79    2
    16    93    92    1
    17    93    94    2
    18    91    92    1
    19    92    95    1
    20    22    20    1
    21    98    97    1
    22    98    99    2
    23    97    96    1
    24    95    96    1
    25   102   103    1
    26   101    99    1
    27    99   100    1
    28    20    19    1
    29    13    11   ar
    30    13    14   ar
    31   116   115    2
    32    11     8   ar
    33   113   114    1
    34   103   104    1
    35   103   106    1
    36   104   105    2
    37    21    19    1
    38    14    12   ar
    39    19    16    1
    40   115   114    1
    41   109   111   ar
    42   109   107   ar
    43   114   117    1
    44   117   118    1
    45   111   112   ar
    46   106   107    1
    47     8     6   ar
    48     8    10   ar
    49   107   108   ar
    50   119   118   ar
    51   118   120   ar
    52    12    10   ar
    53     5     6    1
    54     5     2    1
    55   112   110   ar
    56    16    15    1
    57    16    17    1
    58    15     3   am
    59   108   110   ar
    60     6     7   ar
    61    10     9   ar
    62   138   136    1
    63     1     2    1
    64     2     3    1
    65     3     4    2
    66    17    18    2
    67    39    38    2
    68   136   137    1
    69   136   135    2
    70     7     9   ar
    71   135   134    1
    72    38    40   am
    73    38    37    1
    74   133   134    1
    75   133   132    1
    76    37    36    1
    77   126   125    1
    78   130   129    1
    79   130   131    2
    80   129   132    1
    81   129   128    1
    82    36    33    1
    83   145   146    1
    84   145   144    1
    85    27    28    1
    86    27    24    1
    87   148   147    1
    88    28    29    1
    89   146   147    2
    90   127   125    1
    91   147   149    1
    92    52    51    1
    93    32    33    1
    94    32    25   am
    95   125   122    1
    96    33    34    1
    97    50    51   ar
    98    50    48   ar
    99    51    49   ar
   100   144   143    1
   101    23    24    1
   102    24    25    1
   103    25    26    2
   104    48    46   ar
   105   122   123    1
   106   122   121    1
   107    29    31   am
   108    29    30    2
   109    49    47   ar
   110   123   124    2
   111    46    47   ar
   112    46    45    1
   113   143   140    1
   114    34    35    2
   115   160   158    1
   116    45    42    1
   117   157   158    2
   118   157   156    1
   119   158   159    1
   120   140   141    1
   121   140   139    1
   122   142   141    2
   123   155   156    1
   124   155   154    1
   125   141   150   am
   126   150   151    1
   127    72    70   ar
   128    72    74   ar
   129    70    69   ar
   130    42    41    1
   131    42    43    1
   132   151   154    1
   133   151   152    1
   134    43    44    2
   135    75    74    1
   136    74    73   ar
   137   153   152    2
   138    69    68    1
   139    69    71   ar
   140    68    65    1
   141    65    66    1
   142    65    64    1
   143    63    61    1
   144    66    67    2
   145    62    61    1
   146    73    71   ar
   147    61    60    2
   148    60    59    1
   149    59    58    1
   150    58    57    1
   151    57    54    1
   152    54    55    1
   153    54    53    1
   154    55    56    2
