@<TRIPOS>MOLECULE
tmp/3celA01.pdb
 190 184 0 0 0
SMALL
GASTEIGER

@<TRIPOS>ATOM
      1  N         30.4590   52.7990   87.3040 N.3   174  GLN174     -0.1245
      2  CA        29.1820   52.3800   86.7070 C.3   174  GLN174      0.1566
      3  C         29.4580   51.6540   85.3920 C.2   174  GLN174      0.2260
      4  O         28.5390   51.0910   84.7890 O.2   174  GLN174     -0.2867
      5  CB        28.2730   53.5850   86.4070 C.3   174  GLN174      0.0367
      6  CG        27.8090   54.3700   87.6190 C.3   174  GLN174      0.0905
      7  CD        27.0980   53.4940   88.6250 C.2   174  GLN174      0.2608
      8  OE1       26.2810   52.6460   88.2620 O.2   174  GLN174     -0.2717
      9  NE2       27.4370   53.6620   89.8940 N.am  174  GLN174     -0.0878
     10  N         34.0870   59.2190   94.8230 N.3   213  ASP213     -0.1239
     11  CA        33.0850   60.2770   94.8230 C.3   213  ASP213      0.1674
     12  C         33.2300   61.1040   96.0750 C.2   213  ASP213      0.2266
     13  O         32.6660   60.7840   97.1180 O.2   213  ASP213     -0.2867
     14  CB        31.6630   59.7120   94.7320 C.3   213  ASP213      0.1410
     15  CG        31.2840   59.3120   93.3190 C.2   213  ASP213      0.3668
     16  OD1       31.4910   60.1210   92.3880 O.co2 213  ASP213     -0.2456
     17  OD2       30.7670   58.1920   93.1340 O.co2 213  ASP213     -0.2456
     18  N         28.9270   64.5590   95.9230 N.3   216  GLU216     -0.1245
     19  CA        27.7430   64.3750   95.0790 C.3   216  GLU216      0.1567
     20  C         26.6520   65.0300   95.9120 C.2   216  GLU216      0.2260
     21  O         26.2530   64.4950   96.9510 O.2   216  GLU216     -0.2867
     22  CB        27.4240   62.8970   94.8650 C.3   216  GLU216      0.0388
     23  CG        28.4020   62.1970   93.9590 C.3   216  GLU216      0.1160
     24  CD        27.8890   60.8630   93.4810 C.2   216  GLU216      0.3649
     25  OE1       27.9160   59.8930   94.2650 O.co2 216  GLU216     -0.2457
     26  OE2       27.4490   60.7920   92.3160 O.co2 216  GLU216     -0.2457
     27  N         31.3640   58.8410   98.6640 N.3   225  THR225     -0.1218
     28  CA        31.3610   57.4160   98.3370 C.3   225  THR225      0.1862
     29  C         32.5230   56.8280   97.5360 C.2   225  THR225      0.2287
     30  O         32.7730   57.2380   96.4040 O.2   225  THR225     -0.2866
     31  CB        30.0910   57.0700   97.5090 C.3   225  THR225      0.1770
     32  OG1       28.9490   57.7090   98.0810 O.3   225  THR225     -0.2211
     33  CG2       29.8580   55.5790   97.4650 C.3   225  THR225      0.0375
     34  N         34.2910   53.7500   95.4810 N.3   227  HIS227     -0.1241
     35  CA        33.8300   52.6050   94.6980 C.3   227  HIS227      0.1621
     36  C         35.0080   51.7980   94.1620 C.2   227  HIS227      0.2264
     37  O         35.6960   52.2400   93.2410 O.2   227  HIS227     -0.2867
     38  CB        33.0200   53.0450   93.4700 C.3   227  HIS227      0.0745
     39  CG        31.7650   53.7920   93.7800 C.ar  227  HIS227      0.0817
     40  ND1       30.5120   53.2610   93.5540 N.ar  227  HIS227     -0.2268
     41  CD2       31.5620   55.0660   94.1910 C.ar  227  HIS227      0.1154
     42  CE1       29.5950   54.1780   93.8050 C.ar  227  HIS227      0.1986
     43  NE2       30.2100   55.2810   94.1960 N.ar  227  HIS227     -0.2212
     44  N         24.6150   51.0360   86.2610 N.3   245  THR245     -0.1218
     45  CA        23.3300   51.6360   85.9010 C.3   245  THR245      0.1862
     46  C         22.7970   51.3660   84.4820 C.2   245  THR245      0.2287
     47  O         21.5880   51.2340   84.2910 O.2   245  THR245     -0.2866
     48  CB        23.3800   53.1540   86.1310 C.3   245  THR245      0.1770
     49  OG1       23.8710   53.4100   87.4510 O.3   245  THR245     -0.2211
     50  CG2       22.0040   53.7690   85.9950 C.3   245  THR245      0.0375
     51  N         22.7680   44.9310   87.5280 N.3   250  ARG250     -0.1231
     52  CA        23.5700   45.9530   88.1940 C.3   250  ARG250      0.1694
     53  C         24.8390   45.4300   88.8720 C.2   250  ARG250      0.2592
     54  O         25.8880   46.0690   88.8070 O.2   250  ARG250     -0.2718
     55  CB        22.7050   46.6890   89.2220 C.3   250  ARG250      0.0321
     56  CG        23.4050   47.8140   89.9690 C.3   250  ARG250      0.0489
     57  CD        22.4580   48.4950   90.9460 C.3   250  ARG250      0.2205
     58  NE        23.0910   49.6210   91.6210 N.pl3 250  ARG250     -0.0865
     59  CZ        23.1830   50.8470   91.1170 C.cat 250  ARG250      0.5346
     60  NH1       22.6740   51.1210   89.9250 N.pl3 250  ARG250      0.1354
     61  NH2       23.8140   51.8000   91.7890 N.pl3 250  ARG250      0.1354
     62  N         24.7500   44.2650   89.5020 N.am  251  TYR251     -0.1976
     63  CA        25.8950   43.7050   90.2080 C.3   251  TYR251      0.1639
     64  C         26.6470   42.5910   89.5020 C.2   251  TYR251      0.2290
     65  O         27.4370   41.8870   90.1300 O.2   251  TYR251     -0.2864
     66  CB        25.4660   43.2280   91.5930 C.3   251  TYR251      0.0560
     67  CG        24.7240   44.2820   92.3620 C.ar  251  TYR251     -0.0198
     68  CD1       25.3810   45.4110   92.8410 C.ar  251  TYR251     -0.0009
     69  CD2       23.3530   44.1710   92.5760 C.ar  251  TYR251     -0.0009
     70  CE1       24.6890   46.4060   93.5110 C.ar  251  TYR251      0.0417
     71  CE2       22.6490   45.1600   93.2450 C.ar  251  TYR251      0.0417
     72  CZ        23.3200   46.2760   93.7100 C.ar  251  TYR251      0.1957
     73  OH        22.6110   47.2600   94.3660 O.3   251  TYR251     -0.2866
     74  N         28.9140   49.4090   91.8510 N.3   257  PRO257     -0.2102
     75  CA        28.0820   50.5530   91.4620 C.3   257  PRO257      0.1504
     76  C         27.4370   51.3260   92.6170 C.2   257  PRO257      0.2575
     77  O         26.9620   52.4490   92.4310 O.2   257  PRO257     -0.2718
     78  CB        27.0270   49.9080   90.5650 C.3   257  PRO257      0.0282
     79  CG        26.8180   48.5890   91.2080 C.3   257  PRO257      0.0208
     80  CD        28.2230   48.1370   91.5630 C.3   257  PRO257      0.0893
     81  N         27.4200   50.7300   93.8030 N.am  258  ASP258     -0.1974
     82  CA        26.8220   51.3690   94.9730 C.3   258  ASP258      0.1708
     83  C         27.8360   52.1070   95.8430 C.2   258  ASP258      0.2293
     84  O         27.6350   53.2690   96.1950 O.2   258  ASP258     -0.2864
     85  CB        26.0900   50.3280   95.8270 C.3   258  ASP258      0.1436
     86  CG        24.8580   49.7560   95.1430 C.2   258  ASP258      0.3671
     87  OD1       24.7360   49.8460   93.9020 O.co2 258  ASP258     -0.2456
     88  OD2       24.0000   49.2100   95.8630 O.co2 258  ASP258     -0.2456
     89  N         28.7650   54.3380  100.8470 N.3   261  ASP261     -0.1239
     90  CA        28.3410   55.7270  100.9240 C.3   261  ASP261      0.1674
     91  C         28.1170   56.2780  102.3040 C.2   261  ASP261      0.2266
     92  O         27.6860   55.5670  103.2010 O.2   261  ASP261     -0.2867
     93  CB        27.0660   55.9320  100.0930 C.3   261  ASP261      0.1410
     94  CG        25.8440   55.2780  100.7230 C.2   261  ASP261      0.3668
     95  OD1       25.7820   54.0320  100.7700 O.co2 261  ASP261     -0.2456
     96  OD2       24.9520   56.0110  101.1910 O.co2 261  ASP261     -0.2456
     97  N         20.8670   60.3630  105.5780 N.3   266  ARG266     -0.1245
     98  CA        20.5540   58.9360  105.5260 C.3   266  ARG266      0.1563
     99  C         20.9620   58.2140  106.8160 C.2   266  ARG266      0.2260
    100  O         20.3230   57.2420  107.2320 O.2   266  ARG266     -0.2867
    101  CB        21.2740   58.2870  104.3410 C.3   266  ARG266      0.0307
    102  CG        20.8790   56.8440  104.0820 C.3   266  ARG266      0.0489
    103  CD        21.6070   56.2400  102.8820 C.3   266  ARG266      0.2205
    104  NE        21.0040   54.9600  102.5240 N.pl3 266  ARG266     -0.0865
    105  CZ        21.6250   53.9480  101.9230 C.cat 266  ARG266      0.5346
    106  NH1       22.9050   54.0360  101.5810 N.pl3 266  ARG266      0.1354
    107  NH2       20.9630   52.8200  101.6950 N.pl3 266  ARG266      0.1354
    108  N         24.8160   67.3560   86.6030 N.3   366  TRP366     -0.1241
    109  CA        23.9170   66.4730   85.8820 C.3   366  TRP366      0.1605
    110  C         22.5710   66.1980   86.5470 C.2   366  TRP366      0.2264
    111  O         22.3800   66.4510   87.7390 O.2   366  TRP366     -0.2867
    112  CB        24.6100   65.1260   85.6230 C.3   366  TRP366      0.0550
    113  CG        25.0920   64.3880   86.8760 C.ar  366  TRP366      0.0003
    114  CD1       26.1430   64.7390   87.6820 C.ar  366  TRP366      0.0946
    115  CD2       24.6110   63.1260   87.3820 C.ar  366  TRP366      0.0152
    116  NE1       26.3550   63.7720   88.6350 N.ar  366  TRP366     -0.2442
    117  CE2       25.4330   62.7720   88.4760 C.ar  366  TRP366      0.0810
    118  CE3       23.5740   62.2570   87.0100 C.ar  366  TRP366      0.0012
    119  CZ2       25.2540   61.5820   89.2000 C.ar  366  TRP366      0.0191
    120  CZ3       23.3970   61.0710   87.7330 C.ar  366  TRP366      0.0001
    121  CH2       24.2350   60.7500   88.8140 C.ar  366  TRP366      0.0015
    122  N         19.5240   63.0640   86.6080 N.3   368  ASP368     -0.1239
    123  CA        19.4360   61.6130   86.5080 C.3   368  ASP368      0.1674
    124  C         18.2440   61.0310   85.7330 C.2   368  ASP368      0.2266
    125  O         17.1310   60.9480   86.2590 O.2   368  ASP368     -0.2867
    126  CB        19.4570   61.1080   87.9600 C.3   368  ASP368      0.1410
    127  CG        19.5920   59.6070   88.0940 C.2   368  ASP368      0.3668
    128  OD1       19.7100   58.8740   87.0890 O.co2 368  ASP368     -0.2456
    129  OD2       19.5820   59.1560   89.2540 O.co2 368  ASP368     -0.2456
    130  N         17.9040   57.9450   84.9550 N.3   370  TYR370     -0.1227
    131  CA        17.6750   56.5670   85.3770 C.3   370  TYR370      0.1736
    132  C         16.9360   56.4230   86.7060 C.2   370  TYR370      0.2595
    133  O         16.0880   55.5400   86.8520 O.2   370  TYR370     -0.2718
    134  CB        18.9980   55.7940   85.3950 C.3   370  TYR370      0.0548
    135  CG        19.5760   55.6000   84.0060 C.ar  370  TYR370     -0.0200
    136  CD1       20.3650   56.5850   83.4090 C.ar  370  TYR370     -0.0009
    137  CD2       19.2880   54.4520   83.2650 C.ar  370  TYR370     -0.0009
    138  CE1       20.8440   56.4350   82.1080 C.ar  370  TYR370      0.0417
    139  CE2       19.7630   54.2920   81.9630 C.ar  370  TYR370      0.0417
    140  CZ        20.5380   55.2870   81.3890 C.ar  370  TYR370      0.1957
    141  OH        20.9870   55.1400   80.0930 O.3   370  TYR370     -0.2866
    142  N         17.2060   57.3190   87.6510 N.am  371  ALA371     -0.1980
    143  CA        16.5650   57.2370   88.9640 C.3   371  ALA371      0.1597
    144  C         16.1660   58.5800   89.5540 C.2   371  ALA371      0.2287
    145  O         15.8960   58.6690   90.7490 O.2   371  ALA371     -0.2864
    146  CB        17.4620   56.4710   89.9410 C.3   371  ALA371      0.0319
    147  N         18.0020   58.3770   94.8380 N.3   375  TRP375     -0.1241
    148  CA        18.9590   57.6810   95.6950 C.3   375  TRP375      0.1605
    149  C         19.7750   58.6750   96.5300 C.2   375  TRP375      0.2264
    150  O         20.3300   58.3110   97.5650 O.2   375  TRP375     -0.2867
    151  CB        19.9060   56.8120   94.8570 C.3   375  TRP375      0.0550
    152  CG        20.5930   57.5730   93.7680 C.ar  375  TRP375      0.0003
    153  CD1       20.1320   57.7740   92.4960 C.ar  375  TRP375      0.0946
    154  CD2       21.8280   58.3000   93.8650 C.ar  375  TRP375      0.0152
    155  NE1       20.9960   58.5890   91.8030 N.ar  375  TRP375     -0.2442
    156  CE2       22.0460   58.9250   92.6190 C.ar  375  TRP375      0.0810
    157  CE3       22.7670   58.4820   94.8870 C.ar  375  TRP375      0.0012
    158  CZ2       23.1710   59.7290   92.3640 C.ar  375  TRP375      0.0191
    159  CZ3       23.8870   59.2860   94.6310 C.ar  375  TRP375      0.0001
    160  CH2       24.0750   59.8950   93.3820 C.ar  375  TRP375      0.0015
    161  N         14.1900   56.0780   98.7430 N.3   380  TYR380     -0.1228
    162  CA        14.4470   55.1800   97.6260 C.3   380  TYR380      0.1721
    163  C         14.7840   53.7640   98.0740 C.2   380  TYR380      0.2437
    164  O         15.5650   53.5840   98.9990 O.2   380  TYR380     -0.2733
    165  CB        15.5930   55.7730   96.8040 C.3   380  TYR380      0.0547
    166  CG        15.9390   55.0330   95.5420 C.ar  380  TYR380     -0.0200
    167  CD1       15.2000   55.2230   94.3770 C.ar  380  TYR380     -0.0009
    168  CD2       17.0270   54.1630   95.5040 C.ar  380  TYR380     -0.0009
    169  CE1       15.5360   54.5670   93.2080 C.ar  380  TYR380      0.0417
    170  CE2       17.3720   53.5020   94.3440 C.ar  380  TYR380      0.0417
    171  CZ        16.6240   53.7090   93.1990 C.ar  380  TYR380      0.1957
    172  OH        16.9750   53.0560   92.0460 O.3   380  TYR380     -0.2866
    173  N         14.1290   52.7430   97.4880 N.am  381  PRO381     -0.2729
    174  CA        13.0860   52.7930   96.4520 C.3   381  PRO381      0.1401
    175  C         11.8670   53.5880   96.9260 C.2   381  PRO381      0.2269
    176  O         11.6150   53.6830   98.1340 O.2   381  PRO381     -0.2865
    177  CB        12.7370   51.3180   96.2450 C.3   381  PRO381      0.0296
    178  CG        13.9920   50.6030   96.6070 C.3   381  PRO381      0.0237
    179  CD        14.4660   51.3480   97.8200 C.3   381  PRO381      0.0939
    180  N         16.9720   59.2710  102.2370 N.3   393  ARG393     -0.1245
    181  CA        18.2650   59.9110  102.0430 C.3   393  ARG393      0.1563
    182  C         18.1580   61.4250  101.9810 C.2   393  ARG393      0.2260
    183  O         19.1690   62.1280  102.0730 O.2   393  ARG393     -0.2867
    184  CB        18.9210   59.3880  100.7640 C.3   393  ARG393      0.0307
    185  CG        19.0360   57.8760  100.6940 C.3   393  ARG393      0.0489
    186  CD        17.9240   57.2840   99.8540 C.3   393  ARG393      0.2205
    187  NE        17.9390   55.8230   99.8460 N.pl3 393  ARG393     -0.0865
    188  CZ        18.8630   55.0780   99.2450 C.cat 393  ARG393      0.5346
    189  NH1       19.8700   55.6470   98.5930 N.pl3 393  ARG393      0.1354
    190  NH2       18.7720   53.7560   99.2860 N.pl3 393  ARG393      0.1354
@<TRIPOS>BOND
     1   141   140    1
     2   140   139   ar
     3   140   138   ar
     4   139   137   ar
     5   138   136   ar
     6   137   135   ar
     7   136   135   ar
     8   135   134    1
     9    47    46    2
    10    46    45    1
    11     4     3    2
    12   130   131    1
    13   131   134    1
    14   131   132    1
    15     3     2    1
    16   112   109    1
    17   112   113    1
    18   124   125    2
    19   124   123    1
    20   109   110    1
    21   109   108    1
    22    45    48    1
    23    45    44    1
    24    50    48    1
    25    48    49    1
    26     5     2    1
    27     5     6    1
    28   123   122    1
    29   123   126    1
    30   110   111    2
    31   132   133    2
    32   132   142   am
    33     2     1    1
    34   113   115   ar
    35   113   114   ar
    36   118   115   ar
    37   118   120   ar
    38   128   127   ar
    39   115   117   ar
    40    51    52    1
    41     6     7    1
    42   142   143    1
    43   114   116   ar
    44   120   121   ar
    45   126   127    1
    46   127   129   ar
    47    52    53    1
    48    52    55    1
    49     8     7    2
    50   117   116   ar
    51   117   119   ar
    52     7     9   am
    53    54    53    2
    54   121   119   ar
    55    53    62   am
    56   143   144    1
    57   143   146    1
    58    55    56    1
    59    64    65    2
    60    64    63    1
    61    62    63    1
    62   144   145    2
    63    60    59    1
    64    56    57    1
    65    63    66    1
    66    78    79    1
    67    78    75    1
    68    57    58    1
    69    59    58    2
    70    59    61    1
    71    79    80    1
    72    75    74    1
    73    75    76    1
    74    80    74    1
    75    66    67    1
    76   155   153   ar
    77   155   156   ar
    78   172   171    1
    79    26    24   ar
    80    67    69   ar
    81    67    68   ar
    82   158   156   ar
    83   158   160   ar
    84    16    15   ar
    85    77    76    2
    86   153   152   ar
    87    69    71   ar
    88    76    81   am
    89   156   154   ar
    90    68    70   ar
    91    17    15   ar
    92   171   169   ar
    93   171   170   ar
    94   169   167   ar
    95    37    36    2
    96    71    72   ar
    97    15    14    1
    98   160   159   ar
    99    38    39    1
   100    38    35    1
   101    24    23    1
   102    24    25   ar
   103    70    72   ar
   104    40    39   ar
   105    40    42   ar
   106    72    73    1
   107   152   154   ar
   108   152   151    1
   109    39    41   ar
   110    81    82    1
   111    42    43   ar
   112   154   157   ar
   113    87    86   ar
   114    23    22    1
   115    36    35    1
   116    41    43   ar
   117   170   168   ar
   118   167   166   ar
   119   159   157   ar
   120    35    34    1
   121    14    11    1
   122    10    11    1
   123    11    12    1
   124   147   148    1
   125   151   148    1
   126    22    19    1
   127    82    85    1
   128    82    83    1
   129    19    20    1
   130    19    18    1
   131    86    85    1
   132    86    88   ar
   133   168   166   ar
   134   166   165    1
   135   148   149    1
   136    83    84    2
   137    20    21    2
   138    12    13    2
   139   177   174    1
   140   177   178    1
   141    30    29    2
   142   174   175    1
   143   174   173    1
   144   149   150    2
   145   178   179    1
   146   165   162    1
   147   175   176    2
   148    33    31    1
   149   173   179    1
   150   173   163   am
   151    31    32    1
   152    31    28    1
   153    29    28    1
   154   162   163    1
   155   162   161    1
   156   163   164    2
   157    28    27    1
   158   189   188    1
   159   188   190    1
   160   188   187    2
   161   187   186    1
   162   186   185    1
   163    93    94    1
   164    93    90    1
   165   185   184    1
   166    94    95   ar
   167    94    96   ar
   168   184   181    1
   169    89    90    1
   170    90    91    1
   171   106   105    1
   172   107   105    1
   173   105   104    2
   174   182   181    1
   175   182   183    2
   176   181   180    1
   177    91    92    2
   178   104   103    1
   179   103   102    1
   180   102   101    1
   181   101    98    1
   182    98    97    1
   183    98    99    1
   184    99   100    2
