@<TRIPOS>MOLECULE
tmp/3celA00.pdb
 78 77 0 0 0
SMALL
GASTEIGER

@<TRIPOS>ATOM
      1  N         20.8930   59.4960  109.7780 N.3   268  GLY268     -0.1210
      2  CA        20.1180   59.9230  110.9310 C.3   268  GLY268      0.1956
      3  C         20.1700   61.3830  111.3370 C.2   268  GLY268      0.2612
      4  O         19.3100   61.8420  112.0910 O.2   268  GLY268     -0.2717
      5  N         21.1870   62.1140  110.8950 N.am  269  ASN269     -0.1960
      6  CA        21.2690   63.5210  111.2500 C.3   269  ASN269      0.1819
      7  C         20.6310   64.3740  110.1520 C.2   269  ASN269      0.2622
      8  O         21.2920   64.7860  109.1970 O.2   269  ASN269     -0.2715
      9  CB        22.7120   63.9520  111.5240 C.3   269  ASN269      0.1195
     10  CG        22.7830   65.2780  112.2600 C.2   269  ASN269      0.2630
     11  OD1       21.9120   66.1340  112.0960 O.2   269  ASN269     -0.2716
     12  ND2       23.8040   65.4410  113.0950 N.am  269  ASN269     -0.0877
     13  N         19.3400   64.6450  110.3250 N.am  270  THR270     -0.1937
     14  CA        18.5560   65.4230  109.3730 C.3   270  THR270      0.2028
     15  C         18.6280   66.9260  109.5900 C.2   270  THR270      0.2643
     16  O         17.9600   67.6820  108.8880 O.2   270  THR270     -0.2714
     17  CB        17.0720   64.9780  109.3870 C.3   270  THR270      0.1808
     18  OG1       16.4940   65.2560  110.6720 O.3   270  THR270     -0.2208
     19  CG2       16.9630   63.4790  109.1040 C.3   270  THR270      0.0379
     20  N         19.4450   67.3590  110.5510 N.am  271  SER271     -0.1935
     21  CA        19.5970   68.7810  110.8510 C.3   271  SER271      0.2055
     22  C         20.9720   69.3130  110.4640 C.2   271  SER271      0.2643
     23  O         21.2360   70.5070  110.5940 O.2   271  SER271     -0.2714
     24  CB        19.3930   69.0390  112.3520 C.3   271  SER271      0.2130
     25  OG        18.0700   68.7540  112.7670 O.3   271  SER271     -0.2179
     26  N         21.8470   68.4360  109.9920 N.am  272  PHE272     -0.1973
     27  CA        23.1990   68.8600  109.6570 C.3   272  PHE272      0.1639
     28  C         23.4050   69.6610  108.3680 C.2   272  PHE272      0.2290
     29  O         24.0600   70.6930  108.3810 O.2   272  PHE272     -0.2864
     30  CB        24.1550   67.6600  109.6810 C.3   272  PHE272      0.0560
     31  CG        25.5820   68.0170  109.3490 C.ar  272  PHE272     -0.0200
     32  CD1       26.3640   68.7280  110.2610 C.ar  272  PHE272     -0.0042
     33  CD2       26.1320   67.6740  108.1120 C.ar  272  PHE272     -0.0042
     34  CE1       27.6760   69.0940  109.9460 C.ar  272  PHE272     -0.0003
     35  CE2       27.4390   68.0330  107.7890 C.ar  272  PHE272     -0.0003
     36  CZ        28.2120   68.7470  108.7090 C.ar  272  PHE272     -0.0000
     37  N         22.9850   72.9340  110.5370 N.3   280  THR280     -0.1218
     38  CA        24.3490   73.1920  111.0130 C.3   280  THR280      0.1862
     39  C         25.1320   73.8880  109.8980 C.2   280  THR280      0.2287
     40  O         25.8210   74.8860  110.1300 O.2   280  THR280     -0.2866
     41  CB        25.0520   71.8800  111.3770 C.3   280  THR280      0.1770
     42  OG1       24.2710   71.1830  112.3470 O.3   280  THR280     -0.2211
     43  CG2       26.4450   72.1390  111.9270 C.3   280  THR280      0.0375
     44  N         33.4080   71.9870  111.4910 N.3   310  PHE310     -0.1227
     45  CA        32.5160   70.8910  111.8620 C.3   310  PHE310      0.1736
     46  C         33.0580   69.5890  111.2820 C.2   310  PHE310      0.2595
     47  O         33.2020   69.4520  110.0620 O.2   310  PHE310     -0.2718
     48  CB        31.0960   71.0900  111.2920 C.3   310  PHE310      0.0547
     49  CG        30.4350   72.3720  111.7030 C.ar  310  PHE310     -0.0202
     50  CD1       29.8540   72.5050  112.9580 C.ar  310  PHE310     -0.0042
     51  CD2       30.3860   73.4470  110.8290 C.ar  310  PHE310     -0.0042
     52  CE1       29.2330   73.6950  113.3360 C.ar  310  PHE310     -0.0003
     53  CE2       29.7670   74.6430  111.1960 C.ar  310  PHE310     -0.0003
     54  CZ        29.1900   74.7650  112.4530 C.ar  310  PHE310     -0.0000
     55  N         33.3350   68.6270  112.1540 N.am  311  GLN311     -0.1979
     56  CA        33.8140   67.3280  111.7100 C.3   311  GLN311      0.1601
     57  C         32.5750   66.6110  111.1530 C.2   311  GLN311      0.2287
     58  O         31.4470   67.0210  111.4400 O.2   311  GLN311     -0.2864
     59  CB        34.3540   66.5440  112.9150 C.3   311  GLN311      0.0394
     60  CG        35.1350   65.2810  112.5780 C.3   311  GLN311      0.0908
     61  CD        36.5500   65.5630  112.0780 C.2   311  GLN311      0.2608
     62  OE1       37.1280   66.6000  112.3880 O.2   311  GLN311     -0.2717
     63  NE2       37.1120   64.6310  111.3080 N.am  311  GLN311     -0.0878
     64  N         29.5220   64.5320  111.0250 N.3   313  PRO313     -0.2102
     65  CA        28.7250   64.1400  112.1960 C.3   313  PRO313      0.1504
     66  C         28.8430   62.6680  112.5550 C.2   313  PRO313      0.2575
     67  O         29.0010   61.8130  111.6840 O.2   313  PRO313     -0.2718
     68  CB        27.2890   64.4620  111.7740 C.3   313  PRO313      0.0282
     69  CG        27.4370   65.5040  110.7580 C.3   313  PRO313      0.0208
     70  CD        28.6600   65.1040  109.9770 C.3   313  PRO313      0.0893
     71  N         28.7690   62.3850  113.8490 N.am  314  ASN314     -0.1975
     72  CA        28.8220   61.0150  114.3380 C.3   314  ASN314      0.1688
     73  C         27.6110   60.2370  113.8460 C.2   314  ASN314      0.2292
     74  O         26.5090   60.7780  113.7500 O.2   314  ASN314     -0.2864
     75  CB        28.8300   60.9920  115.8640 C.3   314  ASN314      0.1181
     76  CG        30.2020   60.7690  116.4250 C.2   314  ASN314      0.2629
     77  OD1       30.9530   61.7140  116.6470 O.2   314  ASN314     -0.2716
     78  ND2       30.5470   59.5080  116.6540 N.am  314  ASN314     -0.0877
@<TRIPOS>BOND
     1    35    33   ar
     2    35    36   ar
     3    33    31   ar
     4    28    29    2
     5    28    27    1
     6    36    34   ar
     7    16    15    2
     8    19    17    1
     9     8     7    2
    10    31    30    1
    11    31    32   ar
    12    14    17    1
    13    14    15    1
    14    14    13    1
    15    17    18    1
    16    15    20   am
    17    27    30    1
    18    27    26    1
    19     1     2    1
    20    39    40    2
    21    39    38    1
    22    34    32   ar
    23    70    69    1
    24    70    64    1
    25    26    22   am
    26    47    46    2
    27     7    13   am
    28     7     6    1
    29    22    23    2
    30    22    21    1
    31    37    38    1
    32    20    21    1
    33    69    68    1
    34    51    53   ar
    35    51    49   ar
    36    21    24    1
    37     5     6    1
    38     5     3   am
    39     2     3    1
    40    38    41    1
    41    64    65    1
    42    57    58    2
    43    57    56    1
    44    53    54   ar
    45     6     9    1
    46    46    45    1
    47    46    55   am
    48    48    49    1
    49    48    45    1
    50    63    61   am
    51     3     4    2
    52    41    43    1
    53    41    42    1
    54    44    45    1
    55     9    10    1
    56    67    66    2
    57    49    50   ar
    58    56    55    1
    59    56    59    1
    60    68    65    1
    61    61    62    2
    62    61    60    1
    63    11    10    2
    64    65    66    1
    65    10    12   am
    66    24    25    1
    67    54    52   ar
    68    66    71   am
    69    60    59    1
    70    50    52   ar
    71    74    73    2
    72    73    72    1
    73    71    72    1
    74    72    75    1
    75    75    76    1
    76    76    77    2
    77    76    78   am
