@<TRIPOS>MOLECULE
tmp/3cemA02.pdb
 163 156 0 0 0
SMALL
GASTEIGER

@<TRIPOS>ATOM
      1  N         25.1630  101.3400  135.1040 N.3    45  TRP45      -0.1227
      2  CA        26.3590  100.5610  135.3000 C.3    45  TRP45       0.1737
      3  C         27.5920  101.4670  135.2790 C.2    45  TRP45       0.2595
      4  O         28.4430  101.3610  136.1090 O.2    45  TRP45      -0.2718
      5  CB        26.4520   99.4610  134.2290 C.3    45  TRP45       0.0564
      6  CG        27.3320   98.2980  134.6120 C.ar   45  TRP45       0.0003
      7  CD1       27.9330   98.0690  135.8170 C.ar   45  TRP45       0.0946
      8  CD2       27.6410   97.1690  133.7950 C.ar   45  TRP45       0.0152
      9  NE1       28.6010   96.8670  135.7920 N.ar   45  TRP45      -0.2442
     10  CE2       28.4340   96.2980  134.5600 C.ar   45  TRP45       0.0810
     11  CE3       27.2880   96.7930  132.5030 C.ar   45  TRP45       0.0012
     12  CZ2       28.9160   95.1060  134.0700 C.ar   45  TRP45       0.0191
     13  CZ3       27.8040   95.6010  132.0090 C.ar   45  TRP45       0.0001
     14  CH2       28.5960   94.7690  132.8110 C.ar   45  TRP45       0.0015
     15  N         27.6700  102.3310  134.2620 N.am   46  ILE46      -0.1980
     16  CA        28.7360  103.3260  134.1280 C.3    46  ILE46       0.1595
     17  C         28.7580  104.2490  135.3600 C.2    46  ILE46       0.2287
     18  O         29.7960  104.3600  136.0370 O.2    46  ILE46      -0.2864
     19  CB        28.5640  104.1340  132.8090 C.3    46  ILE46       0.0276
     20  CG1       28.8470  103.2260  131.5810 C.3    46  ILE46       0.0022
     21  CG2       29.4460  105.3650  132.8550 C.3    46  ILE46       0.0022
     22  CD1       28.4940  103.8570  130.2410 C.3    46  ILE46       0.0001
     23  N         29.9440  102.6690  138.8240 N.3    49  GLN49      -0.1231
     24  CA        31.3940  102.5730  138.8720 C.3    49  GLN49       0.1698
     25  C         31.9850  103.9740  139.0750 C.2    49  GLN49       0.2592
     26  O         32.9300  104.1290  139.8630 O.2    49  GLN49      -0.2718
     27  CB        32.0040  101.9310  137.6050 C.3    49  GLN49       0.0381
     28  CG        31.6880  100.4620  137.4180 C.3    49  GLN49       0.0905
     29  CD        31.8350   99.6080  138.6890 C.2    49  GLN49       0.2608
     30  OE1       32.9220   99.5650  139.2990 O.2    49  GLN49      -0.2717
     31  NE2       30.7470   98.9290  139.0890 N.am   49  GLN49      -0.0878
     32  N         31.4580  104.9770  138.3660 N.am   50  GLN50      -0.1979
     33  CA        31.9220  106.3500  138.6250 C.3    50  GLN50       0.1601
     34  C         31.6530  106.7540  140.0380 C.2    50  GLN50       0.2287
     35  O         32.5690  107.2080  140.6910 O.2    50  GLN50      -0.2864
     36  CB        31.3560  107.3870  137.6630 C.3    50  GLN50       0.0394
     37  CG        31.9400  107.1630  136.2700 C.3    50  GLN50       0.0908
     38  CD        31.1060  107.7950  135.1740 C.2    50  GLN50       0.2608
     39  OE1       29.9370  108.1920  135.3870 O.2    50  GLN50      -0.2717
     40  NE2       31.6940  107.8920  133.9850 N.am   50  GLN50      -0.0878
     41  N         34.2820  105.3570  142.5500 N.3    53  TYR53      -0.1241
     42  CA        35.5400  106.0570  142.3600 C.3    53  TYR53       0.1605
     43  C         35.4600  107.4100  143.0230 C.2    53  TYR53       0.2264
     44  O         36.3780  107.7810  143.7510 O.2    53  TYR53      -0.2867
     45  CB        35.8160  106.2380  140.8720 C.3    53  TYR53       0.0534
     46  CG        37.0950  106.9640  140.5230 C.ar   53  TYR53      -0.0201
     47  CD1       38.3010  106.2620  140.4200 C.ar   53  TYR53      -0.0009
     48  CD2       37.1160  108.3400  140.2750 C.ar   53  TYR53      -0.0009
     49  CE1       39.5030  106.8970  140.1110 C.ar   53  TYR53       0.0417
     50  CE2       38.3370  108.9930  139.9420 C.ar   53  TYR53       0.0417
     51  CZ        39.5160  108.2500  139.8670 C.ar   53  TYR53       0.1957
     52  OH        40.7310  108.8300  139.5670 O.3    53  TYR53      -0.2866
     53  N         35.1110   99.1090  149.8710 N.3    59  ARG59      -0.1245
     54  CA        34.6080   98.1420  148.8790 C.3    59  ARG59       0.1563
     55  C         34.5850   96.6990  149.4050 C.2    59  ARG59       0.2260
     56  O         35.5140   96.2710  150.1480 O.2    59  ARG59      -0.2867
     57  CB        35.4350   98.2510  147.5980 C.3    59  ARG59       0.0307
     58  CG        35.1000   99.4530  146.7680 C.3    59  ARG59       0.0489
     59  CD        36.2060   99.6910  145.8170 C.3    59  ARG59       0.2205
     60  NE        35.7840  100.4730  144.6310 N.pl3  59  ARG59      -0.0865
     61  CZ        36.3800  101.6080  144.2270 C.cat  59  ARG59       0.5346
     62  NH1       37.3900  102.1330  144.9140 N.pl3  59  ARG59       0.1354
     63  NH2       35.9740  102.2420  143.1330 N.pl3  59  ARG59       0.1354
     64  N         31.8130   93.7180  144.7350 N.3   133  TYR133     -0.1241
     65  CA        32.1750   92.9960  143.5000 C.3   133  TYR133      0.1605
     66  C         32.2480   91.4960  143.8120 C.2   133  TYR133      0.2264
     67  O         32.7880   91.1250  144.8940 O.2   133  TYR133     -0.2867
     68  CB        33.5510   93.4190  142.9800 C.3   133  TYR133      0.0534
     69  CG        33.7680   94.9070  142.8200 C.ar  133  TYR133     -0.0201
     70  CD1       34.0680   95.4730  141.5530 C.ar  133  TYR133     -0.0009
     71  CD2       33.7330   95.7530  143.9360 C.ar  133  TYR133     -0.0009
     72  CE1       34.2800   96.8590  141.4190 C.ar  133  TYR133      0.0417
     73  CE2       33.9120   97.1440  143.8280 C.ar  133  TYR133      0.0417
     74  CZ        34.1890   97.7090  142.5780 C.ar  133  TYR133      0.1957
     75  OH        34.4310   99.1140  142.5160 O.3   133  TYR133     -0.2866
     76  N         30.8730   91.3700  129.2560 N.3   169  LYS169     -0.1245
     77  CA        31.7890   92.2230  128.5110 C.3   169  LYS169      0.1561
     78  C         33.2260   91.9030  128.9730 C.2   169  LYS169      0.2260
     79  O         33.5750   91.9390  130.1720 O.2   169  LYS169     -0.2867
     80  CB        31.3820   93.6920  128.7350 C.3   169  LYS169      0.0271
     81  CG        32.0250   94.7460  127.8180 C.3   169  LYS169      0.0035
     82  CD        31.8060   94.5140  126.2870 C.3   169  LYS169      0.0206
     83  CE        32.9640   95.1770  125.4730 C.3   169  LYS169      0.1093
     84  NZ        34.4260   95.0930  126.0240 N.3   169  LYS169     -0.1314
     85  N         37.1810   92.6270  129.3320 N.3   171  ARG171     -0.1245
     86  CA        37.8330   93.8560  129.7550 C.3   171  ARG171      0.1563
     87  C         39.3410   93.8080  129.5380 C.2   171  ARG171      0.2260
     88  O         40.1220   93.6140  130.4670 O.2   171  ARG171     -0.2867
     89  CB        37.5330   94.1700  131.2190 C.3   171  ARG171      0.0307
     90  CG        36.0680   94.0510  131.6440 C.3   171  ARG171      0.0489
     91  CD        35.2500   95.0960  130.9240 C.3   171  ARG171      0.2205
     92  NE        35.8560   96.4260  130.8640 N.pl3 171  ARG171     -0.0865
     93  CZ        35.8660   97.2770  131.8730 C.cat 171  ARG171      0.5346
     94  NH1       35.3070   96.9120  132.9960 N.pl3 171  ARG171      0.1354
     95  NH2       36.4670   98.4610  131.7810 N.pl3 171  ARG171      0.1354
     96  N         41.7320   95.9300  128.9670 N.3   173  GLU173     -0.1231
     97  CA        42.5830   96.8270  129.7390 C.3   173  GLU173      0.1699
     98  C         42.9070   96.2830  131.1400 C.2   173  GLU173      0.2592
     99  O         43.8490   96.7530  131.7620 O.2   173  GLU173     -0.2718
    100  CB        42.0270   98.2640  129.8150 C.3   173  GLU173      0.0402
    101  CG        40.8050   98.4580  130.6770 C.3   173  GLU173      0.1161
    102  CD        39.5090   98.5370  129.7890 C.2   173  GLU173      0.3649
    103  OE1       38.6470   99.4160  130.0930 O.co2 173  GLU173     -0.2457
    104  OE2       39.4000   97.7590  128.7580 O.co2 173  GLU173     -0.2457
    105  N         42.1960   95.2750  131.6280 N.am  174  PHE174     -0.1976
    106  CA        42.5060   94.7430  132.9640 C.3   174  PHE174      0.1639
    107  C         43.1090   93.3320  132.9960 C.2   174  PHE174      0.2290
    108  O         43.2290   92.7330  134.0680 O.2   174  PHE174     -0.2864
    109  CB        41.2870   94.7850  133.8800 C.3   174  PHE174      0.0560
    110  CG        40.7690   96.1710  134.1410 C.ar  174  PHE174     -0.0200
    111  CD1       41.6470   97.2010  134.5100 C.ar  174  PHE174     -0.0042
    112  CD2       39.4030   96.4380  134.0450 C.ar  174  PHE174     -0.0042
    113  CE1       41.1850   98.4340  134.7820 C.ar  174  PHE174     -0.0003
    114  CE2       38.9380   97.6970  134.2850 C.ar  174  PHE174     -0.0003
    115  CZ        39.8370   98.7060  134.6540 C.ar  174  PHE174     -0.0000
    116  N         33.2200   91.1150  132.6260 N.3   205  ASP205     -0.1239
    117  CA        32.2400   91.6590  133.5730 C.3   205  ASP205      0.1674
    118  C         30.8090   91.3440  133.1670 C.2   205  ASP205      0.2266
    119  O         30.4470   91.4880  131.9900 O.2   205  ASP205     -0.2867
    120  CB        32.4040   93.1700  133.6900 C.3   205  ASP205      0.1410
    121  CG        33.6760   93.5630  134.4200 C.2   205  ASP205      0.3668
    122  OD1       33.9470   94.7640  134.4380 O.co2 205  ASP205     -0.2456
    123  OD2       34.4330   92.6950  134.9620 O.co2 205  ASP205     -0.2456
    124  N         29.1820   94.6960  139.7940 N.3   218  THR218     -0.1218
    125  CA        29.8940   93.9220  138.8090 C.3   218  THR218      0.1862
    126  C         30.2160   92.5650  139.3380 C.2   218  THR218      0.2287
    127  O         30.6410   92.3990  140.5250 O.2   218  THR218     -0.2866
    128  CB        31.2050   94.6550  138.3580 C.3   218  THR218      0.1770
    129  OG1       30.8460   95.8660  137.6660 O.3   218  THR218     -0.2211
    130  CG2       32.0520   93.7930  137.4100 C.3   218  THR218      0.0375
    131  N         32.9470   90.0060  138.2500 N.3   220  ARG220     -0.1245
    132  CA        34.1540   89.8960  137.4030 C.3   220  ARG220      0.1563
    133  C         34.7140   88.4830  137.4530 C.2   220  ARG220      0.2260
    134  O         35.0940   87.9270  138.5160 O.2   220  ARG220     -0.2867
    135  CB        35.2040   90.9610  137.7880 C.3   220  ARG220      0.0307
    136  CG        36.4460   90.9790  136.8970 C.3   220  ARG220      0.0489
    137  CD        37.2290   92.2670  137.0410 C.3   220  ARG220      0.2205
    138  NE        36.5770   93.3820  136.3400 N.pl3 220  ARG220     -0.0865
    139  CZ        37.0060   94.6360  136.3910 C.cat 220  ARG220      0.5346
    140  NH1       38.0770   94.9130  137.1230 N.pl3 220  ARG220      0.1354
    141  NH2       36.3720   95.6150  135.7240 N.pl3 220  ARG220      0.1354
    142  N         45.4810   97.1860  142.1090 N.3   279  ARG279     -0.1231
    143  CA        45.4500   98.2870  141.1600 C.3   279  ARG279      0.1694
    144  C         44.3500   99.2990  141.3710 C.2   279  ARG279      0.2591
    145  O         44.6250  100.5090  141.3430 O.2   279  ARG279     -0.2718
    146  CB        45.9420   98.0340  139.7030 C.3   279  ARG279      0.0321
    147  CG        45.1010   97.7120  138.4980 C.3   279  ARG279      0.0489
    148  CD        44.1080   98.6680  138.0410 C.3   279  ARG279      0.2205
    149  NE        42.8670   97.8830  138.1460 N.pl3 279  ARG279     -0.0865
    150  CZ        41.6350   98.3480  138.3050 C.cat 279  ARG279      0.5346
    151  NH1       41.3520   99.6310  138.3070 N.pl3 279  ARG279      0.1354
    152  NH2       40.6710   97.4880  138.4660 N.pl3 279  ARG279      0.1354
    153  N         43.1610   98.8180  141.7000 N.am  280  ARG280     -0.1980
    154  CA        42.0730   99.7300  141.9930 C.3   280  ARG280      0.1597
    155  C         42.3980  100.5980  143.2350 C.2   280  ARG280      0.2287
    156  O         42.1550  101.7890  143.2020 O.2   280  ARG280     -0.2864
    157  CB        40.7050   99.0250  142.1030 C.3   280  ARG280      0.0334
    158  CG        39.4870   99.9390  142.2560 C.3   280  ARG280      0.0492
    159  CD        38.1700   99.1300  142.3680 C.3   280  ARG280      0.2205
    160  NE        37.9320   98.2640  141.1940 N.pl3 280  ARG280     -0.0865
    161  CZ        38.0200   96.9230  141.1770 C.cat 280  ARG280      0.5346
    162  NH1       38.3550   96.2120  142.2650 N.pl3 280  ARG280      0.1354
    163  NH2       37.8130   96.2880  140.0400 N.pl3 280  ARG280      0.1354
@<TRIPOS>BOND
     1    83    84    1
     2    83    82    1
     3    82    81    1
     4    81    80    1
     5    77    80    1
     6    77    78    1
     7    77    76    1
     8   104   102   ar
     9    96    97    1
    10    78    79    2
    11    85    86    1
    12    87    86    1
    13    87    88    2
    14    97   100    1
    15    97    98    1
    16    86    89    1
    17   102   103   ar
    18   102   101    1
    19   100   101    1
    20    22    20    1
    21    92    91    1
    22    92    93    2
    23    91    90    1
    24    98   105   am
    25    98    99    2
    26    89    90    1
    27    20    19    1
    28   105   106    1
    29    95    93    1
    30    93    94    1
    31   119   118    2
    32    13    11   ar
    33    13    14   ar
    34    11     8   ar
    35   116   117    1
    36    19    21    1
    37    19    16    1
    38    14    12   ar
    39   106   107    1
    40   106   109    1
    41   107   108    2
    42   118   117    1
    43   117   120    1
    44   120   121    1
    45     8    10   ar
    46     8     6   ar
    47   109   110    1
    48    40    38   am
    49   112   110   ar
    50   112   114   ar
    51    12    10   ar
    52    16    15    1
    53    16    17    1
    54   110   111   ar
    55     5     6    1
    56     5     2    1
    57    15     3   am
    58   114   115   ar
    59   121   122   ar
    60   121   123   ar
    61   111   113   ar
    62    10     9   ar
    63     6     7   ar
    64   115   113   ar
    65     1     2    1
    66    38    39    2
    67    38    37    1
    68     3     2    1
    69     3     4    2
    70    17    18    2
    71   141   139    1
    72     9     7   ar
    73    37    36    1
    74   138   139    2
    75   138   137    1
    76   139   140    1
    77   136   137    1
    78   136   135    1
    79   132   133    1
    80   132   135    1
    81   132   131    1
    82   130   128    1
    83    28    27    1
    84    28    29    1
    85   133   134    2
    86    27    24    1
    87    36    33    1
    88   129   128    1
    89   148   149    1
    90   148   147    1
    91   149   150    2
    92   150   151    1
    93   150   152    1
    94   128   125    1
    95    32    33    1
    96    32    25   am
    97   147   146    1
    98    33    34    1
    99    29    31   am
   100    29    30    2
   101   125   126    1
   102   125   124    1
   103    23    24    1
   104    24    25    1
   105    25    26    2
   106   126   127    2
   107    52    51    1
   108   146   143    1
   109    51    50   ar
   110    51    49   ar
   111    50    48   ar
   112    34    35    2
   113   163   161    1
   114    49    47   ar
   115    48    46   ar
   116    47    46   ar
   117    46    45    1
   118    45    42    1
   119   143   144    1
   120   143   142    1
   121   161   160    2
   122   161   162    1
   123   160   159    1
   124   145   144    2
   125   144   153   am
   126    72    70   ar
   127    72    74   ar
   128    70    69   ar
   129   153   154    1
   130   154   157    1
   131   154   155    1
   132   157   158    1
   133   158   159    1
   134    42    41    1
   135    42    43    1
   136    75    74    1
   137    74    73   ar
   138    69    68    1
   139    69    71   ar
   140    68    65    1
   141    43    44    2
   142    63    61    1
   143   156   155    2
   144    65    66    1
   145    65    64    1
   146    66    67    2
   147    73    71   ar
   148    61    60    2
   149    61    62    1
   150    60    59    1
   151    59    58    1
   152    58    57    1
   153    57    54    1
   154    54    55    1
   155    54    53    1
   156    55    56    2
