@<TRIPOS>MOLECULE
tmp/3cenA00.pdb
 195 191 0 0 0
SMALL
GASTEIGER

@<TRIPOS>ATOM
      1  N         10.5150   41.3450   50.0710 N.3    82  LYS82      -0.1231
      2  CA         9.5030   41.4100   51.1200 C.3    82  LYS82       0.1693
      3  C          9.0180   40.0130   51.5010 C.2    82  LYS82       0.2592
      4  O          8.4870   39.8030   52.5930 O.2    82  LYS82      -0.2718
      5  CB         8.3110   42.2530   50.6570 C.3    82  LYS82       0.0285
      6  CG         8.6720   43.6740   50.2560 C.3    82  LYS82       0.0035
      7  CD         7.4520   44.4450   49.7690 C.3    82  LYS82       0.0206
      8  CE         7.8400   45.8420   49.3040 C.3    82  LYS82       0.1093
      9  NZ         8.4940   46.6170   50.3960 N.3    82  LYS82      -0.1314
     10  N          9.2060   39.0620   50.5930 N.am   83  GLU83      -0.1966
     11  CA         8.7820   37.6850   50.8240 C.3    83  GLU83       0.1733
     12  C          9.6170   36.9770   51.8860 C.2    83  GLU83       0.2617
     13  O          9.1460   36.0430   52.5380 O.2    83  GLU83      -0.2715
     14  CB         8.8530   36.8940   49.5140 C.3    83  GLU83       0.0429
     15  CG         7.8870   37.3690   48.4370 C.3    83  GLU83       0.1163
     16  CD         6.4490   36.9900   48.7320 C.2    83  GLU83       0.3649
     17  OE1        5.5570   37.3760   47.9460 O.co2  83  GLU83      -0.2457
     18  OE2        6.2100   36.3020   49.7460 O.co2  83  GLU83      -0.2457
     19  N         10.8550   37.4240   52.0680 N.am   84  THR84      -0.1937
     20  CA        11.7470   36.7980   53.0400 C.3    84  THR84       0.2028
     21  C         12.3550   37.7930   54.0180 C.2    84  THR84       0.2642
     22  O         12.7320   37.4260   55.1330 O.2    84  THR84      -0.2714
     23  CB        12.9170   36.0990   52.3320 C.3    84  THR84       0.1808
     24  OG1       13.6610   37.0740   51.5870 O.3    84  THR84      -0.2208
     25  CG2       12.4040   35.0140   51.3820 C.3    84  THR84       0.0379
     26  N         12.4460   39.0460   53.5830 N.am   85  TYR85      -0.1973
     27  CA        13.0450   40.1230   54.3680 C.3    85  TYR85       0.1639
     28  C         14.5460   39.8980   54.5300 C.2    85  TYR85       0.2290
     29  O         15.1770   40.4400   55.4410 O.2    85  TYR85      -0.2864
     30  CB        12.3740   40.2680   55.7390 C.3    85  TYR85       0.0560
     31  CG        11.3350   41.3710   55.7660 C.ar   85  TYR85      -0.0198
     32  CD1       10.2140   41.3190   54.9410 C.ar   85  TYR85      -0.0009
     33  CD2       11.4880   42.4790   56.5960 C.ar   85  TYR85      -0.0009
     34  CE1        9.2670   42.3480   54.9380 C.ar   85  TYR85       0.0417
     35  CE2       10.5480   43.5140   56.6030 C.ar   85  TYR85       0.0417
     36  CZ         9.4410   43.4410   55.7710 C.ar   85  TYR85       0.1957
     37  OH         8.5130   44.4560   55.7680 O.3    85  TYR85      -0.2866
     38  N          7.1680   52.3300   68.6620 N.3   132  ARG132     -0.1245
     39  CA         6.0890   52.1250   69.6250 C.3   132  ARG132      0.1563
     40  C          6.6310   51.5100   70.9090 C.2   132  ARG132      0.2260
     41  O          7.6160   50.7680   70.8850 O.2   132  ARG132     -0.2867
     42  CB         5.0260   51.1890   69.0460 C.3   132  ARG132      0.0307
     43  CG         4.3280   51.6880   67.7970 C.3   132  ARG132      0.0489
     44  CD         3.4320   50.5890   67.2470 C.3   132  ARG132      0.2205
     45  NE         2.6820   50.9930   66.0640 N.pl3 132  ARG132     -0.0865
     46  CZ         2.0210   50.1460   65.2800 C.cat 132  ARG132      0.5346
     47  NH1        2.0230   48.8480   65.5550 N.pl3 132  ARG132      0.1354
     48  NH2        1.3570   50.5940   64.2230 N.pl3 132  ARG132      0.1354
     49  N          2.9900   46.8790   71.3440 N.3   135  GLU135     -0.1245
     50  CA         2.6550   46.4230   69.9980 C.3   135  GLU135      0.1567
     51  C          1.5350   47.2830   69.4140 C.2   135  GLU135      0.2260
     52  O          1.5220   47.5700   68.2160 O.2   135  GLU135     -0.2867
     53  CB         2.2490   44.9460   70.0040 C.3   135  GLU135      0.0388
     54  CG         1.9370   44.4000   68.6150 C.3   135  GLU135      0.1160
     55  CD         1.7760   42.8920   68.5960 C.2   135  GLU135      0.3649
     56  OE1        1.1960   42.3710   67.6210 O.co2 135  GLU135     -0.2457
     57  OE2        2.2370   42.2280   69.5480 O.co2 135  GLU135     -0.2457
     58  N          9.3390   31.9670   60.5580 N.3   162  PHE162     -0.1227
     59  CA         9.9590   32.3960   59.3140 C.3   162  PHE162      0.1736
     60  C         11.4250   31.9810   59.3570 C.2   162  PHE162      0.2595
     61  O         12.0410   31.9450   60.4260 O.2   162  PHE162     -0.2718
     62  CB         9.8500   33.9150   59.1650 C.3   162  PHE162      0.0547
     63  CG         8.4360   34.4170   59.1260 C.ar  162  PHE162     -0.0202
     64  CD1        7.6670   34.2870   57.9730 C.ar  162  PHE162     -0.0042
     65  CD2        7.8610   35.0000   60.2510 C.ar  162  PHE162     -0.0042
     66  CE1        6.3410   34.7310   57.9400 C.ar  162  PHE162     -0.0003
     67  CE2        6.5390   35.4460   60.2300 C.ar  162  PHE162     -0.0003
     68  CZ         5.7790   35.3110   59.0700 C.ar  162  PHE162     -0.0000
     69  N         11.9820   31.6670   58.1960 N.am  163  ILE163     -0.1980
     70  CA        13.3700   31.2410   58.1190 C.3   163  ILE163      0.1595
     71  C         14.3470   32.3590   58.4600 C.2   163  ILE163      0.2287
     72  O         14.2740   33.4520   57.9030 O.2   163  ILE163     -0.2864
     73  CB        13.7040   30.7100   56.7100 C.3   163  ILE163      0.0276
     74  CG1       12.8390   29.4830   56.4060 C.3   163  ILE163      0.0022
     75  CG2       15.1920   30.3690   56.6150 C.3   163  ILE163      0.0022
     76  CD1       12.9770   28.9750   54.9950 C.3   163  ILE163      0.0001
     77  N         11.5840   44.6590   73.9130 N.3   179  ASP179     -0.1225
     78  CA        11.9320   44.3460   72.5340 C.3   179  ASP179      0.1805
     79  C         11.8300   45.6410   71.7340 C.2   179  ASP179      0.2598
     80  O         11.4070   46.6700   72.2650 O.2   179  ASP179     -0.2718
     81  CB        10.9220   43.3050   72.0250 C.3   179  ASP179      0.1424
     82  CG        11.2580   42.7520   70.6510 C.2   179  ASP179      0.3668
     83  OD1       12.4040   42.9320   70.1790 O.co2 179  ASP179     -0.2456
     84  OD2       10.3590   42.1130   70.0540 O.co2 179  ASP179     -0.2456
     85  N         12.2590   45.6090   70.4770 N.am  180  ALA180     -0.1966
     86  CA        12.1260   46.7790   69.6250 C.3   180  ALA180      0.1728
     87  C         10.6850   46.6300   69.1620 C.2   180  ALA180      0.2616
     88  O         10.0230   45.6590   69.5400 O.2   180  ALA180     -0.2715
     89  CB        13.0720   46.6930   68.4440 C.3   180  ALA180      0.0334
     90  N         10.2000   47.5630   68.3540 N.am  181  CYS181     -0.1954
     91  CA         8.8240   47.4920   67.8690 C.3   181  CYS181      0.1843
     92  C          8.6560   48.3000   66.5840 C.2   181  CYS181      0.2625
     93  O          9.6350   48.7510   65.9910 O.2   181  CYS181     -0.2714
     94  CB         7.8640   48.0090   68.9480 C.3   181  CYS181      0.0997
     95  SG         6.1090   47.5590   68.7300 S.3   181  CYS181     -0.0797
     96  N          7.4070   48.4750   66.1620 N.am  182  GLN182     -0.1977
     97  CA         7.0810   49.2220   64.9480 C.3   182  GLN182      0.1601
     98  C          7.6360   50.6480   65.0070 C.2   182  GLN182      0.2287
     99  O          7.3410   51.4000   65.9360 O.2   182  GLN182     -0.2864
    100  CB         5.5550   49.2670   64.7740 C.3   182  GLN182      0.0394
    101  CG         5.0500   50.0170   63.5440 C.3   182  GLN182      0.0908
    102  CD         5.2360   49.2420   62.2540 C.2   182  GLN182      0.2608
    103  OE1        4.7030   48.1390   62.0920 O.2   182  GLN182     -0.2717
    104  NE2        5.9910   49.8160   61.3220 N.am  182  GLN182     -0.0878
    105  N         12.4160   50.0360   63.1740 N.3   185  SER185     -0.1217
    106  CA        13.0510   49.4460   61.9940 C.3   185  SER185      0.1889
    107  C         14.0700   50.3720   61.3360 C.2   185  SER185      0.2288
    108  O         13.8380   51.5730   61.2100 O.2   185  SER185     -0.2866
    109  CB        11.9990   49.0420   60.9530 C.3   185  SER185      0.2089
    110  OG        11.3580   47.8250   61.2960 O.3   185  SER185     -0.2183
    111  N         17.7480   47.1260   62.9390 N.3   203  VAL203     -0.1231
    112  CA        16.4400   46.6170   63.3420 C.3   203  VAL203      0.1692
    113  C         15.7070   46.1810   62.0770 C.2   203  VAL203      0.2593
    114  O         15.4760   46.9920   61.1830 O.2   203  VAL203     -0.2718
    115  CB        15.6130   47.6970   64.0640 C.3   203  VAL203      0.0266
    116  CG1       14.2430   47.1310   64.4400 C.3   203  VAL203      0.0020
    117  CG2       16.3570   48.1740   65.3080 C.3   203  VAL203      0.0020
    118  N         15.3330   44.9070   62.0080 N.am  204  SER204     -0.1938
    119  CA        14.6680   44.3980   60.8160 C.3   204  SER204      0.2055
    120  C         13.1980   44.0040   60.9690 C.2   204  SER204      0.2643
    121  O         12.3210   44.6050   60.3460 O.2   204  SER204     -0.2714
    122  CB        15.4630   43.2110   60.2600 C.3   204  SER204      0.2130
    123  OG        14.9280   42.7750   59.0220 O.3   204  SER204     -0.2179
    124  N         12.9250   42.9930   61.7840 N.am  205  TRP205     -0.1959
    125  CA        11.5450   42.5550   61.9690 C.3   205  TRP205      0.1771
    126  C         11.3450   41.6910   63.2050 C.2   205  TRP205      0.2620
    127  O         12.2920   41.3740   63.9220 O.2   205  TRP205     -0.2715
    128  CB        11.0620   41.7800   60.7390 C.3   205  TRP205      0.0590
    129  CG        11.8600   40.5360   60.4470 C.ar  205  TRP205      0.0006
    130  CD1       13.0040   40.4490   59.7070 C.ar  205  TRP205      0.0946
    131  CD2       11.5670   39.2000   60.8910 C.ar  205  TRP205      0.0152
    132  NE1       13.4400   39.1460   59.6590 N.ar  205  TRP205     -0.2442
    133  CE2       12.5790   38.3580   60.3770 C.ar  205  TRP205      0.0810
    134  CE3       10.5480   38.6340   61.6760 C.ar  205  TRP205      0.0012
    135  CZ2       12.6050   36.9750   60.6180 C.ar  205  TRP205      0.0191
    136  CZ3       10.5720   37.2570   61.9170 C.ar  205  TRP205      0.0001
    137  CH2       11.5970   36.4440   61.3870 C.ar  205  TRP205      0.0015
    138  N         10.0890   41.3210   63.4410 N.am  206  GLY206     -0.1940
    139  CA         9.7460   40.4880   64.5760 C.3   206  GLY206      0.2014
    140  C          8.2780   40.1070   64.5080 C.2   206  GLY206      0.2639
    141  O          7.4700   40.8460   63.9440 O.2   206  GLY206     -0.2714
    142  N          7.9350   38.9430   65.0510 N.am  207  GLU207     -0.1963
    143  CA         6.5470   38.4910   65.0670 C.3   207  GLU207      0.1733
    144  C          5.9120   39.1850   66.2680 C.2   207  GLU207      0.2617
    145  O          6.0280   38.7250   67.4040 O.2   207  GLU207     -0.2715
    146  CB         6.4860   36.9660   65.2150 C.3   207  GLU207      0.0429
    147  CG         7.1710   36.2240   64.0750 C.3   207  GLU207      0.1163
    148  CD         7.0470   34.7140   64.1900 C.2   207  GLU207      0.3649
    149  OE1        5.9040   34.2070   64.1880 O.co2 207  GLU207     -0.2457
    150  OE2        8.0910   34.0340   64.2830 O.co2 207  GLU207     -0.2457
    151  N          5.2480   40.3040   66.0030 N.am  208  GLY208     -0.1940
    152  CA         4.6540   41.0750   67.0750 C.3   208  GLY208      0.2014
    153  C          5.8020   41.8140   67.7360 C.2   208  GLY208      0.2639
    154  O          6.8010   42.1240   67.0790 O.2   208  GLY208     -0.2714
    155  N          5.6770   42.0970   69.0270 N.am  209  CYS209     -0.1967
    156  CA         6.7360   42.7840   69.7530 C.3   209  CYS209      0.1712
    157  C          6.7970   42.2780   71.1850 C.2   209  CYS209      0.2296
    158  O          5.7840   42.2480   71.8780 O.2   209  CYS209     -0.2864
    159  CB         6.4960   44.2970   69.7500 C.3   209  CYS209      0.0983
    160  SG         6.3840   45.0210   68.1040 S.3   209  CYS209     -0.0798
    161  N          6.9340   39.3880   72.3680 N.3   211  ARG211     -0.1245
    162  CA         6.0430   38.2580   72.6070 C.3   211  ARG211      0.1563
    163  C          6.8080   37.0980   73.2350 C.2   211  ARG211      0.2260
    164  O          7.9850   36.8840   72.9410 O.2   211  ARG211     -0.2867
    165  CB         5.4040   37.7890   71.2950 C.3   211  ARG211      0.0307
    166  CG         4.3780   38.7400   70.7020 C.3   211  ARG211      0.0489
    167  CD         3.7860   38.1640   69.4180 C.3   211  ARG211      0.2205
    168  NE         2.7580   39.0230   68.8330 N.pl3 211  ARG211     -0.0865
    169  CZ         2.1890   38.8080   67.6490 C.cat 211  ARG211      0.5346
    170  NH1        2.5460   37.7600   66.9170 N.pl3 211  ARG211      0.1354
    171  NH2        1.2630   39.6430   67.1950 N.pl3 211  ARG211      0.1354
    172  N         13.6550   39.4690   68.7330 N.3   216  GLY216     -0.1210
    173  CA        13.7840   40.5440   67.7640 C.3   216  GLY216      0.1956
    174  C         14.7580   40.0840   66.6880 C.2   216  GLY216      0.2612
    175  O         15.7780   39.4710   67.0060 O.2   216  GLY216     -0.2717
    176  N         14.4550   40.3650   65.4250 N.am  217  ILE217     -0.1965
    177  CA        15.3250   39.9440   64.3230 C.3   217  ILE217      0.1727
    178  C         16.0530   41.1410   63.7210 C.2   217  ILE217      0.2616
    179  O         15.4290   42.1380   63.3490 O.2   217  ILE217     -0.2715
    180  CB        14.5230   39.2400   63.2020 C.3   217  ILE217      0.0290
    181  CG1       13.5510   38.2260   63.8120 C.3   217  ILE217      0.0022
    182  CG2       15.4800   38.5030   62.2580 C.3   217  ILE217      0.0023
    183  CD1       14.2340   37.1370   64.6280 C.3   217  ILE217      0.0001
    184  N         17.3740   41.0230   63.6090 N.am  218  TYR218     -0.1974
    185  CA        18.2010   42.1010   63.0870 C.3   218  TYR218      0.1639
    186  C         19.0630   41.6840   61.9060 C.2   218  TYR218      0.2290
    187  O         19.4570   40.5270   61.7990 O.2   218  TYR218     -0.2864
    188  CB        19.1420   42.6100   64.1750 C.3   218  TYR218      0.0560
    189  CG        18.4520   43.1150   65.4130 C.ar  218  TYR218     -0.0198
    190  CD1       17.8700   42.2330   66.3250 C.ar  218  TYR218     -0.0009
    191  CD2       18.3720   44.4760   65.6690 C.ar  218  TYR218     -0.0009
    192  CE1       17.2220   42.7090   67.4630 C.ar  218  TYR218      0.0417
    193  CE2       17.7300   44.9600   66.8030 C.ar  218  TYR218      0.0417
    194  CZ        17.1580   44.0760   67.6920 C.ar  218  TYR218      0.1957
    195  OH        16.5220   44.5550   68.8110 O.3   218  TYR218     -0.2866
@<TRIPOS>BOND
     1    17    16   ar
     2    15    16    1
     3    15    14    1
     4    16    18   ar
     5     8     7    1
     6     8     9    1
     7    14    11    1
     8     7     6    1
     9     1     2    1
    10     6     5    1
    11    10    11    1
    12    10     3   am
    13     5     2    1
    14    11    12    1
    15     2     3    1
    16    25    23    1
    17     3     4    2
    18    24    23    1
    19    12    19   am
    20    12    13    2
    21    19    20    1
    22    23    20    1
    23    20    21    1
    24    26    21   am
    25    26    27    1
    26    21    22    2
    27    27    28    1
    28    27    30    1
    29    28    29    2
    30    34    32   ar
    31    34    36   ar
    32    32    31   ar
    33    76    74    1
    34    30    31    1
    35    31    33   ar
    36    37    36    1
    37    36    35   ar
    38    74    73    1
    39    33    35   ar
    40    75    73    1
    41    73    70    1
    42    72    71    2
    43    66    64   ar
    44    66    68   ar
    45    64    63   ar
    46    70    69    1
    47    70    71    1
    48    69    60   am
    49   123   122    1
    50    68    67   ar
    51    63    62    1
    52    63    65   ar
    53    62    59    1
    54    59    60    1
    55    59    58    1
    56    60    61    2
    57   132   130   ar
    58   132   133   ar
    59   130   129   ar
    60    67    65   ar
    61   122   119    1
    62   121   120    2
    63   133   135   ar
    64   133   131   ar
    65   129   128    1
    66   129   131   ar
    67   135   137   ar
    68   128   125    1
    69   119   120    1
    70   119   118    1
    71   131   134   ar
    72   109   110    1
    73   109   106    1
    74   120   124   am
    75   114   113    2
    76   108   107    2
    77   104   102   am
    78   107   106    1
    79   137   136   ar
    80   134   136   ar
    81   124   125    1
    82   187   186    2
    83   186   185    1
    84   125   126    1
    85   106   105    1
    86   118   113   am
    87   113   112    1
    88   103   102    2
    89   102   101    1
    90   182   180    1
    91   111   112    1
    92   185   184    1
    93   185   188    1
    94   180   181    1
    95   180   177    1
    96   126   138   am
    97   126   127    2
    98   112   115    1
    99   179   178    2
   100   138   139    1
   101   101   100    1
   102   184   178   am
   103   178   177    1
   104   181   183    1
   105   141   140    2
   106   115   116    1
   107   115   117    1
   108   147   148    1
   109   147   146    1
   110   188   189    1
   111   149   148   ar
   112   148   150   ar
   113    48    46    1
   114   177   176    1
   115   140   139    1
   116   140   142   am
   117   100    97    1
   118    97    98    1
   119    97    96    1
   120    98    99    2
   121   142   143    1
   122   143   146    1
   123   143   144    1
   124    46    47    1
   125    46    45    2
   126   189   191   ar
   127   189   190   ar
   128   176   174   am
   129   191   193   ar
   130    93    92    2
   131   151   144   am
   132   151   152    1
   133    45    44    1
   134    96    92   am
   135   144   145    2
   136   190   192   ar
   137    92    91    1
   138   174   175    2
   139   174   173    1
   140   193   194   ar
   141   170   169    1
   142   152   153    1
   143   154   153    2
   144   171   169    1
   145    44    43    1
   146   192   194   ar
   147    56    55   ar
   148   169   168    2
   149   194   195    1
   150   153   155   am
   151   173   172    1
   152    43    42    1
   153    91    90    1
   154    91    94    1
   155   160   159    1
   156    52    51    2
   157    90    87   am
   158    89    86    1
   159    55    54    1
   160    55    57   ar
   161    54    53    1
   162    38    39    1
   163    95    94    1
   164   168   167    1
   165   155   156    1
   166    42    39    1
   167    87    88    2
   168    87    86    1
   169    51    50    1
   170   167   166    1
   171    39    40    1
   172    86    85    1
   173   159   156    1
   174   156   157    1
   175    50    53    1
   176    50    49    1
   177    84    82   ar
   178    83    82   ar
   179    85    79   am
   180    82    81    1
   181   166   165    1
   182    41    40    2
   183   157   158    2
   184   165   162    1
   185    79    80    2
   186    79    78    1
   187    81    78    1
   188   161   162    1
   189    78    77    1
   190   162   163    1
   191   164   163    2
