@<TRIPOS>MOLECULE
tmp/3cepA00.pdb
 162 153 0 0 0
SMALL
GASTEIGER

@<TRIPOS>ATOM
      1  N         46.9210   33.5190   16.6820 N.3    21  PHE21      -0.1241
      2  CA        48.1060   33.1740   17.4780 C.3    21  PHE21       0.1605
      3  C         49.0910   34.3430   17.5820 C.2    21  PHE21       0.2264
      4  O         49.3140   35.0640   16.6110 O.2    21  PHE21      -0.2867
      5  CB        48.8320   31.9410   16.9120 C.3    21  PHE21       0.0534
      6  CG        50.2500   31.7850   17.4150 C.ar   21  PHE21      -0.0203
      7  CD1       51.3190   32.3730   16.7330 C.ar   21  PHE21      -0.0042
      8  CD2       50.5140   31.0660   18.5710 C.ar   21  PHE21      -0.0042
      9  CE1       52.6340   32.2450   17.2040 C.ar   21  PHE21      -0.0003
     10  CE2       51.8160   30.9260   19.0450 C.ar   21  PHE21      -0.0003
     11  CZ        52.8790   31.5200   18.3610 C.ar   21  PHE21      -0.0000
     12  N         45.5760   31.2720   20.8810 N.3    48  GLU48      -0.1245
     13  CA        46.7430   30.3960   20.9030 C.3    48  GLU48       0.1567
     14  C         47.9730   31.2670   21.1590 C.2    48  GLU48       0.2260
     15  O         48.2210   32.2300   20.4400 O.2    48  GLU48      -0.2867
     16  CB        46.8840   29.5940   19.6050 C.3    48  GLU48       0.0388
     17  CG        47.9440   28.4960   19.6760 C.3    48  GLU48       0.1160
     18  CD        48.3830   28.0110   18.3040 C.2    48  GLU48       0.3649
     19  OE1       49.5780   27.6630   18.1580 O.co2  48  GLU48      -0.2457
     20  OE2       47.5470   27.9860   17.3680 O.co2  48  GLU48      -0.2457
     21  N         59.0090   23.7150   13.8650 N.3    58  ALA58      -0.1231
     22  CA        57.7940   23.6970   13.0410 C.3    58  ALA58       0.1694
     23  C         57.4140   25.0930   12.5210 C.2    58  ALA58       0.2592
     24  O         56.3200   25.2910   12.0010 O.2    58  ALA58      -0.2718
     25  CB        56.6270   23.0520   13.8080 C.3    58  ALA58       0.0304
     26  N         58.3430   26.0390   12.6190 N.am   59  ASP59      -0.1974
     27  CA        58.0530   27.4340   12.3170 C.3    59  ASP59       0.1709
     28  C         58.9090   28.0120   11.2040 C.2    59  ASP59       0.2293
     29  O         60.1220   27.7990   11.1550 O.2    59  ASP59      -0.2864
     30  CB        58.1880   28.2860   13.5770 C.3    59  ASP59       0.1436
     31  CG        57.0030   28.1370   14.5000 C.2    59  ASP59       0.3671
     32  OD1       55.8920   28.5090   14.0750 O.co2  59  ASP59      -0.2456
     33  OD2       57.1780   27.6580   15.6480 O.co2  59  ASP59      -0.2456
     34  N         57.3830   33.5200   12.3780 N.3    63  ILE63      -0.1245
     35  CA        57.2800   33.1840   13.7950 C.3    63  ILE63       0.1561
     36  C         58.6570   32.9560   14.4320 C.2    63  ILE63       0.2260
     37  O         58.8490   33.2410   15.6250 O.2    63  ILE63      -0.2867
     38  CB        56.3110   31.9990   14.0460 C.3    63  ILE63       0.0252
     39  CG1       54.8790   32.4170   13.6880 C.3    63  ILE63       0.0019
     40  CG2       56.3610   31.5750   15.4990 C.3    63  ILE63       0.0019
     41  CD1       53.8600   31.2880   13.6820 C.3    63  ILE63       0.0001
     42  N         51.0700   26.9960   22.6150 N.3    99  LEU99      -0.1245
     43  CA        51.8820   26.2600   21.6690 C.3    99  LEU99       0.1561
     44  C         53.2570   26.1160   22.2790 C.2    99  LEU99       0.2260
     45  O         53.9530   27.1160   22.5180 O.2    99  LEU99      -0.2867
     46  CB        51.9510   26.9400   20.2950 C.3    99  LEU99       0.0270
     47  CG        52.6670   26.1810   19.1590 C.3    99  LEU99       0.0019
     48  CD1       54.2160   26.2880   19.2060 C.3    99  LEU99       0.0001
     49  CD2       52.2230   24.7260   19.1060 C.3    99  LEU99       0.0001
     50  N         57.0540   23.7120   22.5400 N.3   101  TYR101     -0.1241
     51  CA        57.9790   22.6790   22.0740 C.3   101  TYR101      0.1605
     52  C         58.3190   21.7830   23.2550 C.2   101  TYR101      0.2264
     53  O         58.3190   22.2420   24.4000 O.2   101  TYR101     -0.2867
     54  CB        59.2190   23.2930   21.4070 C.3   101  TYR101      0.0534
     55  CG        58.8840   23.7850   20.0180 C.ar  101  TYR101     -0.0201
     56  CD1       58.9540   22.9260   18.9220 C.ar  101  TYR101     -0.0009
     57  CD2       58.4230   25.0910   19.8070 C.ar  101  TYR101     -0.0009
     58  CE1       58.6030   23.3530   17.6460 C.ar  101  TYR101      0.0417
     59  CE2       58.0700   25.5300   18.5330 C.ar  101  TYR101      0.0417
     60  CZ        58.1700   24.6620   17.4580 C.ar  101  TYR101      0.1957
     61  OH        57.8290   25.0900   16.1930 O.3   101  TYR101     -0.2866
     62  N         49.3850   22.5000   23.0660 N.3   126  LEU126     -0.1245
     63  CA        49.8210   21.8160   21.8610 C.3   126  LEU126      0.1561
     64  C         51.3360   21.7020   21.9190 C.2   126  LEU126      0.2260
     65  O         52.0320   22.7140   21.9670 O.2   126  LEU126     -0.2867
     66  CB        49.4170   22.6120   20.6170 C.3   126  LEU126      0.0270
     67  CG        49.1300   21.9460   19.2660 C.3   126  LEU126      0.0019
     68  CD1       49.2510   22.9820   18.1510 C.3   126  LEU126      0.0001
     69  CD2       49.9940   20.7130   18.9610 C.3   126  LEU126      0.0001
     70  N         54.2520   20.8360   19.6860 N.3   128  ALA128     -0.1245
     71  CA        54.4910   20.7320   18.2440 C.3   128  ALA128      0.1562
     72  C         55.3180   19.5100   17.8070 C.2   128  ALA128      0.2260
     73  O         55.0550   18.9230   16.7570 O.2   128  ALA128     -0.2867
     74  CB        55.1260   22.0210   17.7270 C.3   128  ALA128      0.0290
     75  N         47.7440   17.2660   16.4780 N.3   152  ILE152     -0.1245
     76  CA        47.6240   17.6410   15.0800 C.3   152  ILE152      0.1561
     77  C         47.1600   16.4600   14.2400 C.2   152  ILE152      0.2260
     78  O         47.6930   15.3480   14.3530 O.2   152  ILE152     -0.2867
     79  CB        48.9520   18.2010   14.5260 C.3   152  ILE152      0.0252
     80  CG1       49.2610   19.5580   15.1680 C.3   152  ILE152      0.0019
     81  CG2       48.8980   18.3280   13.0110 C.3   152  ILE152      0.0019
     82  CD1       50.6790   20.0470   14.9400 C.3   152  ILE152      0.0001
     83  N         43.5930   19.8170   16.1540 N.3   174  TYR174     -0.1241
     84  CA        44.3430   20.6950   15.2590 C.3   174  TYR174      0.1605
     85  C         44.3970   20.0650   13.8760 C.2   174  TYR174      0.2264
     86  O         45.0900   19.0590   13.6640 O.2   174  TYR174     -0.2867
     87  CB        45.7580   20.9810   15.7840 C.3   174  TYR174      0.0534
     88  CG        46.4260   22.1750   15.1250 C.ar  174  TYR174     -0.0201
     89  CD1       46.7880   22.1490   13.7770 C.ar  174  TYR174     -0.0009
     90  CD2       46.6960   23.3350   15.8550 C.ar  174  TYR174     -0.0009
     91  CE1       47.3980   23.2520   13.1680 C.ar  174  TYR174      0.0417
     92  CE2       47.3150   24.4360   15.2620 C.ar  174  TYR174      0.0417
     93  CZ        47.6560   24.3880   13.9160 C.ar  174  TYR174      0.1957
     94  OH        48.2680   25.4750   13.3310 O.3   174  TYR174     -0.2866
     95  N         55.0870   26.6430    9.5920 N.3   182  THR182     -0.1203
     96  CA        54.1730   27.7870    9.6430 C.3   182  THR182      0.1994
     97  C         54.5800   28.8570    8.6300 C.2   182  THR182      0.2618
     98  O         55.7680   29.0410    8.3520 O.2   182  THR182     -0.2717
     99  CB        54.0920   28.4090   11.0570 C.3   182  THR182      0.1784
    100  OG1       55.3710   28.9370   11.4320 O.3   182  THR182     -0.2211
    101  CG2       53.6390   27.3810   12.0760 C.3   182  THR182      0.0376
    102  N         53.5910   29.5500    8.0740 N.am  183  GLY183     -0.1942
    103  CA        53.8490   30.5830    7.0800 C.3   183  GLY183      0.2014
    104  C         52.5890   31.0470    6.3890 C.2   183  GLY183      0.2638
    105  O         51.8520   30.2420    5.8240 O.2   183  GLY183     -0.2714
    106  N         52.3570   32.3550    6.4370 N.am  184  ALA184     -0.1977
    107  CA        51.1860   32.9880    5.8350 C.3   184  ALA184      0.1597
    108  C         51.1830   32.9200    4.3000 C.2   184  ALA184      0.2287
    109  O         50.1180   32.8800    3.6810 O.2   184  ALA184     -0.2864
    110  CB        51.0820   34.4350    6.3020 C.3   184  ALA184      0.0319
    111  N         47.6710   26.7170    9.6900 N.3   211  PHE211     -0.1227
    112  CA        48.8000   26.7480    8.7250 C.3   211  PHE211      0.1736
    113  C         48.4000   27.4230    7.4150 C.2   211  PHE211      0.2596
    114  O         47.6120   26.8750    6.6420 O.2   211  PHE211     -0.2718
    115  CB        49.4060   25.3660    8.4420 C.3   211  PHE211      0.0547
    116  CG        50.4750   24.9500    9.4130 C.ar  211  PHE211     -0.0202
    117  CD1       50.2520   24.9850   10.7860 C.ar  211  PHE211     -0.0042
    118  CD2       51.6950   24.4810    8.9480 C.ar  211  PHE211     -0.0042
    119  CE1       51.2330   24.5810   11.6740 C.ar  211  PHE211     -0.0003
    120  CE2       52.6810   24.0760    9.8280 C.ar  211  PHE211     -0.0003
    121  CZ        52.4480   24.1230   11.1940 C.ar  211  PHE211     -0.0000
    122  N         48.9360   28.6160    7.1830 N.am  212  GLY212     -0.1942
    123  CA        48.7070   29.3410    5.9370 C.3   212  GLY212      0.2014
    124  C         47.3840   30.0830    5.8030 C.2   212  GLY212      0.2638
    125  O         47.0560   30.5560    4.7180 O.2   212  GLY212     -0.2714
    126  N         46.6230   30.1840    6.8930 N.am  213  ILE213     -0.1977
    127  CA        45.3580   30.9220    6.8840 C.3   213  ILE213      0.1596
    128  C         45.6540   32.3980    7.1310 C.2   213  ILE213      0.2287
    129  O         46.0580   32.7760    8.2300 O.2   213  ILE213     -0.2864
    130  CB        44.3590   30.3990    7.9620 C.3   213  ILE213      0.0276
    131  CG1       44.2490   28.8600    7.9520 C.3   213  ILE213      0.0022
    132  CG2       42.9930   31.0770    7.8230 C.3   213  ILE213      0.0022
    133  CD1       43.7240   28.2530    6.6690 C.3   213  ILE213      0.0001
    134  N         42.5360   28.9720   12.4690 N.3   231  ILE231     -0.1231
    135  CA        43.6130   29.5560   13.2520 C.3   231  ILE231      0.1692
    136  C         44.5360   30.3210   12.3150 C.2   231  ILE231      0.2593
    137  O         44.9460   29.8000   11.2790 O.2   231  ILE231     -0.2718
    138  CB        44.4430   28.4720   14.0100 C.3   231  ILE231      0.0266
    139  CG1       43.5430   27.5910   14.8790 C.3   231  ILE231      0.0019
    140  CG2       45.5450   29.1170   14.8660 C.3   231  ILE231      0.0020
    141  CD1       44.1640   26.2570   15.2410 C.3   231  ILE231      0.0001
    142  N         44.8500   31.5580   12.6790 N.am  232  SER232     -0.1938
    143  CA        45.8230   32.3510   11.9400 C.3   232  SER232      0.2055
    144  C         46.9550   32.7750   12.8690 C.2   232  SER232      0.2644
    145  O         46.7130   33.3980   13.9060 O.2   232  SER232     -0.2714
    146  CB        45.1520   33.5770   11.3180 C.3   232  SER232      0.2130
    147  OG        46.0800   34.3500   10.5750 O.3   232  SER232     -0.2179
    148  N         48.1830   32.4310   12.4910 N.am  233  GLY233     -0.1939
    149  CA        49.3740   32.7680   13.2710 C.3   233  GLY233      0.2014
    150  C         50.2730   33.7740   12.5690 C.2   233  GLY233      0.2640
    151  O         50.3020   34.9520   12.9360 O.2   233  GLY233     -0.2714
    152  N         50.9880   33.3120   11.5460 N.am  234  SER234     -0.1935
    153  CA        51.9700   34.1330   10.8390 C.3   234  SER234      0.2055
    154  C         51.3930   35.4480   10.3050 C.2   234  SER234      0.2642
    155  O         52.0680   36.4790   10.3380 O.2   234  SER234     -0.2714
    156  CB        52.6360   33.3340    9.7130 C.3   234  SER234      0.2130
    157  OG        53.3220   32.2010   10.2240 O.3   234  SER234     -0.2179
    158  N         50.1470   35.4050    9.8320 N.am  235  ALA235     -0.1977
    159  CA        49.4440   36.5960    9.3530 C.3   235  ALA235      0.1597
    160  C         49.3380   37.6570   10.4420 C.2   235  ALA235      0.2287
    161  O         49.5990   38.8340   10.1940 O.2   235  ALA235     -0.2864
    162  CB        48.0590   36.2270    8.8400 C.3   235  ALA235      0.0319
@<TRIPOS>BOND
     1   109   108    2
     2   108   107    1
     3   125   124    2
     4   124   123    1
     5   124   126   am
     6   105   104    2
     7   107   110    1
     8   107   106    1
     9   123   122    1
    10   104   106   am
    11   104   103    1
    12   114   113    2
    13   133   131    1
    14   127   126    1
    15   127   128    1
    16   127   130    1
    17   103   102    1
    18   128   129    2
    19   122   113   am
    20   113   112    1
    21   132   130    1
    22   131   130    1
    23   102    97   am
    24    98    97    2
    25   115   112    1
    26   115   116    1
    27    97    96    1
    28   112   111    1
    29   162   159    1
    30   118   116   ar
    31   118   120   ar
    32   159   158    1
    33   159   160    1
    34   116   117   ar
    35    95    96    1
    36    96    99    1
    37   156   157    1
    38   156   153    1
    39   120   121   ar
    40   158   154   am
    41   161   160    2
    42   154   155    2
    43   154   153    1
    44   147   146    1
    45   117   119   ar
    46   153   152    1
    47    99   100    1
    48    99   101    1
    49    29    28    2
    50   121   119   ar
    51    28    27    1
    52   137   136    2
    53   146   143    1
    54   152   150   am
    55   143   142    1
    56   143   144    1
    57    24    23    2
    58   136   142   am
    59   136   135    1
    60    27    26    1
    61    27    30    1
    62    34    35    1
    63   134   135    1
    64   148   144   am
    65   148   149    1
    66    23    26   am
    67    23    22    1
    68   150   151    2
    69   150   149    1
    70   144   145    2
    71    81    79    1
    72    22    25    1
    73    22    21    1
    74    91    89   ar
    75    91    93   ar
    76   135   138    1
    77    94    93    1
    78    30    31    1
    79    86    85    2
    80    41    39    1
    81    39    38    1
    82    89    88   ar
    83    35    38    1
    84    35    36    1
    85    85    84    1
    86    93    92   ar
    87   138   140    1
    88   138   139    1
    89    38    40    1
    90    32    31   ar
    91    77    78    2
    92    77    76    1
    93    36    37    2
    94    31    33   ar
    95    79    76    1
    96    79    80    1
    97   139   141    1
    98    82    80    1
    99    76    75    1
   100    88    87    1
   101    88    90   ar
   102    84    87    1
   103    84    83    1
   104    92    90   ar
   105    61    60    1
   106     4     3    2
   107     1     2    1
   108     7     9   ar
   109     7     6   ar
   110    73    72    2
   111     5     6    1
   112     5     2    1
   113     9    11   ar
   114    20    18   ar
   115     6     8   ar
   116    60    58   ar
   117    60    59   ar
   118     2     3    1
   119    58    56   ar
   120    74    71    1
   121    72    71    1
   122    68    67    1
   123    19    18   ar
   124    71    70    1
   125    18    17    1
   126    11    10   ar
   127    59    57   ar
   128     8    10   ar
   129    56    55   ar
   130    69    67    1
   131    49    47    1
   132    47    48    1
   133    47    46    1
   134    67    66    1
   135    16    17    1
   136    16    13    1
   137    57    55   ar
   138    55    54    1
   139    46    43    1
   140    15    14    2
   141    66    63    1
   142    12    13    1
   143    13    14    1
   144    54    51    1
   145    43    44    1
   146    43    42    1
   147    63    64    1
   148    63    62    1
   149    64    65    2
   150    51    50    1
   151    51    52    1
   152    44    45    2
   153    52    53    2
