@<TRIPOS>MOLECULE
tmp/3cevD02.pdb
 140 129 0 0 0
SMALL
GASTEIGER

@<TRIPOS>ATOM
      1  N         56.1560  149.0850   51.0000 N.3    98  HIS98      -0.1241
      2  CA        57.0780  148.7850   52.0800 C.3    98  HIS98       0.1621
      3  C         56.8410  147.5340   52.9170 C.2    98  HIS98       0.2264
      4  O         57.7240  147.1320   53.6720 O.2    98  HIS98      -0.2867
      5  CB        57.2580  150.0100   52.9740 C.3    98  HIS98       0.0745
      6  CG        58.6780  150.2460   53.3820 C.ar   98  HIS98       0.0817
      7  ND1       59.1390  151.4850   53.7740 N.ar   98  HIS98      -0.2268
      8  CD2       59.7450  149.4120   53.4250 C.ar   98  HIS98       0.1154
      9  CE1       60.4290  151.4050   54.0330 C.ar   98  HIS98       0.1986
     10  NE2       60.8190  150.1590   53.8320 N.ar   98  HIS98      -0.2212
     11  N         63.0990  157.1160   55.1190 N.3   121  ASP121     -0.1239
     12  CA        61.6610  157.1710   54.9330 C.3   121  ASP121      0.1674
     13  C         61.0680  158.4330   55.5580 C.2   121  ASP121      0.2266
     14  O         61.6820  159.0280   56.4200 O.2   121  ASP121     -0.2867
     15  CB        61.1520  155.9550   55.7200 C.3   121  ASP121      0.1410
     16  CG        59.8020  155.4640   55.2940 C.2   121  ASP121      0.3668
     17  OD1       58.8480  156.2450   55.2960 O.co2 121  ASP121     -0.2456
     18  OD2       59.6780  154.2520   55.0330 O.co2 121  ASP121     -0.2456
     19  N         58.1050  158.2710   57.0500 N.3   123  HIS123     -0.1241
     20  CA        57.3030  157.6620   58.1130 C.3   123  HIS123      0.1621
     21  C         58.1480  156.6910   58.9680 C.2   123  HIS123      0.2264
     22  O         59.2940  156.3580   58.6150 O.2   123  HIS123     -0.2867
     23  CB        56.1340  156.8850   57.4840 C.3   123  HIS123      0.0745
     24  CG        55.2750  157.7070   56.5720 C.ar  123  HIS123      0.0817
     25  ND1       55.4630  157.7470   55.2080 N.ar  123  HIS123     -0.2268
     26  CD2       54.2260  158.5240   56.8300 C.ar  123  HIS123      0.1154
     27  CE1       54.5670  158.5530   54.6650 C.ar  123  HIS123      0.1986
     28  NE2       53.8040  159.0380   55.6270 N.ar  123  HIS123     -0.2212
     29  N         56.8990  153.5310   60.0450 N.3   125  ASP125     -0.1239
     30  CA        56.5210  152.1630   59.6910 C.3   125  ASP125      0.1674
     31  C         56.6410  151.1970   60.8670 C.2   125  ASP125      0.2266
     32  O         56.9800  150.0280   60.6870 O.2   125  ASP125     -0.2867
     33  CB        57.3430  151.6730   58.4980 C.3   125  ASP125      0.1410
     34  CG        56.9980  152.4080   57.2060 C.2   125  ASP125      0.3668
     35  OD1       55.8440  152.8790   57.0450 O.co2 125  ASP125     -0.2456
     36  OD2       57.8870  152.4950   56.3320 O.co2 125  ASP125     -0.2456
     37  N         53.9960  150.7320   63.1890 N.3   127  ASN127     -0.1240
     38  CA        52.6480  150.5320   63.7210 C.3   127  ASN127      0.1653
     39  C         52.3340  149.0600   63.8690 C.2   127  ASN127      0.2266
     40  O         53.0100  148.2000   63.2820 O.2   127  ASN127     -0.2867
     41  CB        51.5720  151.1400   62.8160 C.3   127  ASN127      0.1155
     42  CG        51.2460  152.5630   63.1810 C.2   127  ASN127      0.2627
     43  OD1       51.2700  152.9390   64.3460 O.2   127  ASN127     -0.2716
     44  ND2       50.9480  153.3750   62.1760 N.am  127  ASN127     -0.0877
     45  N         47.8850  151.1660   64.3960 N.3   132  SER132     -0.1203
     46  CA        47.6610  151.6160   63.0260 C.3   132  SER132      0.2005
     47  C         46.3980  152.4000   62.8120 C.2   132  SER132      0.2461
     48  O         45.3120  151.9570   63.1600 O.2   132  SER132     -0.2732
     49  CB        47.6730  150.4660   62.0300 C.3   132  SER132      0.2103
     50  OG        47.5080  150.9730   60.7160 O.3   132  SER132     -0.2182
     51  N         46.5270  153.5830   62.2120 N.am  133  PRO133     -0.2717
     52  CA        45.3590  154.4150   61.9480 C.3   133  PRO133      0.1535
     53  C         44.6800  154.0280   60.6380 C.2   133  PRO133      0.2599
     54  O         43.5680  154.4830   60.3730 O.2   133  PRO133     -0.2715
     55  CB        45.9700  155.8010   61.8200 C.3   133  PRO133      0.0310
     56  CG        47.2900  155.5200   61.1480 C.3   133  PRO133      0.0237
     57  CD        47.7800  154.2990   61.8940 C.3   133  PRO133      0.0939
     58  N         45.3250  153.1520   59.8590 N.am  134  SER134     -0.1950
     59  CA        44.8330  152.7460   58.5420 C.3   134  SER134      0.1924
     60  C         44.5980  151.2430   58.3080 C.2   134  SER134      0.2314
     61  O         43.8000  150.8440   57.4390 O.2   134  SER134     -0.2863
     62  CB        45.8340  153.2300   57.4910 C.3   134  SER134      0.2116
     63  OG        47.0870  152.5950   57.7040 O.3   134  SER134     -0.2180
     64  N         46.8300  149.4640   57.1010 N.3   136  ASN136     -0.1240
     65  CA        47.7140  149.1420   55.9830 C.3   136  ASN136      0.1653
     66  C         49.0260  148.5560   56.4930 C.2   136  ASN136      0.2266
     67  O         49.7690  149.2200   57.2320 O.2   136  ASN136     -0.2867
     68  CB        48.0170  150.3890   55.1660 C.3   136  ASN136      0.1155
     69  CG        46.8280  150.8970   54.4260 C.2   136  ASN136      0.2627
     70  OD1       45.9140  150.1450   54.0620 O.2   136  ASN136     -0.2716
     71  ND2       46.8490  152.1830   54.1460 N.am  136  ASN136     -0.0877
     72  N         51.8380  148.1750   55.0760 N.3   138  HIS138     -0.1226
     73  CA        53.0680  148.8430   54.6430 C.3   138  HIS138      0.1752
     74  C         53.5520  149.8630   55.6880 C.2   138  HIS138      0.2596
     75  O         54.6320  150.4450   55.5450 O.2   138  HIS138     -0.2718
     76  CB        52.9050  149.5060   53.2630 C.3   138  HIS138      0.0759
     77  CG        52.1680  150.8080   53.2830 C.ar  138  HIS138      0.0818
     78  ND1       52.3780  151.7880   52.3400 N.ar  138  HIS138     -0.2268
     79  CD2       51.2180  151.2920   54.1200 C.ar  138  HIS138      0.1154
     80  CE1       51.5950  152.8220   52.5930 C.ar  138  HIS138      0.1986
     81  NE2       50.8800  152.5460   53.6680 N.ar  138  HIS138     -0.2212
     82  N         52.7250  150.0870   56.7130 N.am  139  GLY139     -0.1957
     83  CA        53.0670  150.9930   57.7910 C.3   139  GLY139      0.1869
     84  C         53.4750  150.2320   59.0510 C.2   139  GLY139      0.2309
     85  O         53.6120  150.8230   60.1270 O.2   139  GLY139     -0.2863
     86  N         56.5790  162.2560   59.5220 N.3   175  SER175     -0.1217
     87  CA        55.1970  161.8750   59.7490 C.3   175  SER175      0.1889
     88  C         55.0940  160.5830   60.5510 C.2   175  SER175      0.2288
     89  O         55.2000  159.4860   59.9890 O.2   175  SER175     -0.2866
     90  CB        54.4500  161.7330   58.4310 C.3   175  SER175      0.2089
     91  OG        53.1210  161.3120   58.6790 O.3   175  SER175     -0.2183
     92  N         52.7810  158.5540   63.6440 N.3   177  ASP177     -0.1239
     93  CA        51.5120  158.4970   64.3660 C.3   177  ASP177      0.1674
     94  C         51.8850  158.5070   65.8470 C.2   177  ASP177      0.2266
     95  O         53.0350  158.2160   66.1920 O.2   177  ASP177     -0.2867
     96  CB        50.7340  157.2440   63.9680 C.3   177  ASP177      0.1410
     97  CG        50.3470  157.2390   62.4770 C.2   177  ASP177      0.3668
     98  OD1       49.8790  158.2860   61.9710 O.co2 177  ASP177     -0.2456
     99  OD2       50.4900  156.1930   61.8080 O.co2 177  ASP177     -0.2456
    100  N         53.4100  155.4650   67.2480 N.3   180  GLU180     -0.1245
    101  CA        54.7510  155.2610   66.7080 C.3   180  GLU180      0.1567
    102  C         55.7740  156.0900   67.4420 C.2   180  GLU180      0.2260
    103  O         56.8920  155.6430   67.6650 O.2   180  GLU180     -0.2867
    104  CB        54.7940  155.6110   65.2330 C.3   180  GLU180      0.0388
    105  CG        53.8980  154.7580   64.3680 C.3   180  GLU180      0.1160
    106  CD        54.0780  155.0820   62.9130 C.2   180  GLU180      0.3649
    107  OE1       53.4880  156.0860   62.4540 O.co2 180  GLU180     -0.2457
    108  OE2       54.8450  154.3560   62.2400 O.co2 180  GLU180     -0.2457
    109  N         62.5960  154.0370   51.1850 N.3   225  ASP225     -0.1239
    110  CA        61.2690  154.3440   50.7010 C.3   225  ASP225      0.1674
    111  C         61.4230  155.6520   49.9440 C.2   225  ASP225      0.2266
    112  O         61.9370  156.6320   50.4870 O.2   225  ASP225     -0.2867
    113  CB        60.3130  154.5640   51.8700 C.3   225  ASP225      0.1410
    114  CG        58.8470  154.5750   51.4370 C.2   225  ASP225      0.3668
    115  OD1       58.5280  155.1070   50.3480 O.co2 225  ASP225     -0.2456
    116  OD2       58.0090  154.0450   52.1940 O.co2 225  ASP225     -0.2456
    117  N         59.3680  157.7630   49.3730 N.3   227  ASP227     -0.1239
    118  CA        58.6260  158.8550   50.0070 C.3   227  ASP227      0.1674
    119  C         59.5170  159.6500   50.9590 C.2   227  ASP227      0.2266
    120  O         59.1270  160.7210   51.4440 O.2   227  ASP227     -0.2867
    121  CB        57.2790  158.4090   50.6540 C.3   227  ASP227      0.1410
    122  CG        57.4250  157.6980   52.0200 C.2   227  ASP227      0.3668
    123  OD1       58.4910  157.7470   52.6830 O.co2 227  ASP227     -0.2456
    124  OD2       56.4150  157.0890   52.4390 O.co2 227  ASP227     -0.2456
    125  N         52.0870  157.7020   49.6650 N.3   239  THR239     -0.1218
    126  CA        52.0130  158.5200   50.8790 C.3   239  THR239      0.1862
    127  C         53.0270  159.6580   50.8780 C.2   239  THR239      0.2287
    128  O         53.9820  159.6680   51.6520 O.2   239  THR239     -0.2866
    129  CB        52.2090  157.6860   52.1690 C.3   239  THR239      0.1770
    130  OG1       53.4610  157.0020   52.1170 O.3   239  THR239     -0.2211
    131  CG2       51.1130  156.6710   52.3250 C.3   239  THR239      0.0375
    132  N         58.0190  151.4510   47.1320 N.3   270  GLU270     -0.1245
    133  CA        56.9380  152.4090   46.9540 C.3   270  GLU270      0.1567
    134  C         56.8840  153.2110   45.6590 C.2   270  GLU270      0.2260
    135  O         56.1090  154.1660   45.5490 O.2   270  GLU270     -0.2867
    136  CB        56.8450  153.3300   48.1710 C.3   270  GLU270      0.0388
    137  CG        56.6280  152.5770   49.4800 C.3   270  GLU270      0.1160
    138  CD        55.1680  152.2210   49.7670 C.2   270  GLU270      0.3649
    139  OE1       54.2750  152.5870   48.9800 O.co2 270  GLU270     -0.2457
    140  OE2       54.9110  151.5880   50.8140 O.co2 270  GLU270     -0.2457
@<TRIPOS>BOND
     1   135   134    2
     2   134   133    1
     3   133   132    1
     4   133   136    1
     5   136   137    1
     6   139   138   ar
     7   117   118    1
     8   137   138    1
     9   125   126    1
    10   138   140   ar
    11   111   112    2
    12   111   110    1
    13   118   121    1
    14   118   119    1
    15   115   114   ar
    16   121   122    1
    17   110   109    1
    18   110   113    1
    19   127   126    1
    20   127   128    2
    21   126   129    1
    22   119   120    2
    23     1     2    1
    24   114   113    1
    25   114   116   ar
    26   122   124   ar
    27   122   123   ar
    28     2     3    1
    29     2     5    1
    30   130   129    1
    31   129   131    1
    32    78    80   ar
    33    78    77   ar
    34    80    81   ar
    35     3     4    2
    36     5     6    1
    37    76    77    1
    38    76    73    1
    39    77    79   ar
    40     6     8   ar
    41     6     7   ar
    42     8    10   ar
    43    81    79   ar
    44     7     9   ar
    45    10     9   ar
    46    70    69    2
    47    71    69   am
    48    69    68    1
    49    73    72    1
    50    73    74    1
    51    27    25   ar
    52    27    28   ar
    53    12    11    1
    54    12    13    1
    55    12    15    1
    56    18    16   ar
    57    68    65    1
    58    25    24   ar
    59    16    17   ar
    60    16    15    1
    61    75    74    2
    62    13    14    2
    63    28    26   ar
    64    74    82   am
    65    65    66    1
    66    65    64    1
    67    36    34   ar
    68    66    67    2
    69    24    26   ar
    70    24    23    1
    71    82    83    1
    72    35    34   ar
    73    19    20    1
    74    34    33    1
    75    61    60    2
    76    23    20    1
    77    62    63    1
    78    62    59    1
    79    83    84    1
    80    20    21    1
    81    60    59    1
    82    90    91    1
    83    90    87    1
    84    33    30    1
    85    59    58    1
    86    22    21    2
    87    84    85    2
    88    86    87    1
    89    30    29    1
    90    30    31    1
    91    87    88    1
    92    58    53   am
    93    89    88    2
    94    54    53    2
    95    53    52    1
    96    32    31    2
    97    50    49    1
    98    56    55    1
    99    56    57    1
   100    99    97   ar
   101    55    52    1
   102    57    51    1
   103    52    51    1
   104    98    97   ar
   105    49    46    1
   106    44    42   am
   107    51    47   am
   108   108   106   ar
   109   107   106   ar
   110    97    96    1
   111    47    46    1
   112    47    48    2
   113    41    42    1
   114    41    38    1
   115   106   105    1
   116    46    45    1
   117    42    43    2
   118    37    38    1
   119    40    39    2
   120    92    93    1
   121    38    39    1
   122    96    93    1
   123    93    94    1
   124   105   104    1
   125   104   101    1
   126    94    95    2
   127   101   100    1
   128   101   102    1
   129   102   103    2
