@<TRIPOS>MOLECULE
tmp/3cevD00.pdb
 98 93 0 0 0
SMALL
GASTEIGER

@<TRIPOS>ATOM
      1  N         72.6510  150.2950   34.3870 N.3    34  ARG34      -0.1245
      2  CA        73.3260  151.1780   35.3310 C.3    34  ARG34       0.1563
      3  C         74.3580  150.4170   36.1560 C.2    34  ARG34       0.2260
      4  O         75.5000  150.8500   36.3130 O.2    34  ARG34      -0.2867
      5  CB        72.2900  151.7720   36.2750 C.3    34  ARG34       0.0307
      6  CG        72.7790  152.9190   37.0870 C.3    34  ARG34       0.0489
      7  CD        72.7130  154.1590   36.2760 C.3    34  ARG34       0.2205
      8  NE        73.1550  155.2860   37.0670 N.pl3  34  ARG34      -0.0865
      9  CZ        72.5740  156.4750   37.0630 C.cat  34  ARG34       0.5346
     10  NH1       71.5040  156.6750   36.2990 N.pl3  34  ARG34       0.1354
     11  NH2       73.0740  157.4620   37.8130 N.pl3  34  ARG34       0.1354
     12  N         67.0120  165.7760   46.2120 N.3   247  TYR247     -0.1227
     13  CA        67.6730  164.8740   45.2820 C.3   247  TYR247      0.1736
     14  C         69.1660  164.8030   45.6200 C.2   247  TYR247      0.2595
     15  O         69.7330  163.7240   45.6820 O.2   247  TYR247     -0.2718
     16  CB        67.4710  165.4060   43.8680 C.3   247  TYR247      0.0548
     17  CG        68.0290  164.5400   42.7770 C.ar  247  TYR247     -0.0200
     18  CD1       67.4170  163.3450   42.4420 C.ar  247  TYR247     -0.0009
     19  CD2       69.1760  164.9220   42.0760 C.ar  247  TYR247     -0.0009
     20  CE1       67.9240  162.5470   41.4410 C.ar  247  TYR247      0.0417
     21  CE2       69.6930  164.1300   41.0670 C.ar  247  TYR247      0.0417
     22  CZ        69.0600  162.9460   40.7630 C.ar  247  TYR247      0.1957
     23  OH        69.5930  162.1530   39.7940 O.3   247  TYR247     -0.2866
     24  N         69.7880  165.9580   45.8560 N.am  248  ARG248     -0.1980
     25  CA        71.2070  166.0360   46.2170 C.3   248  ARG248      0.1597
     26  C         71.5560  165.4300   47.5910 C.2   248  ARG248      0.2287
     27  O         72.5790  164.7750   47.7120 O.2   248  ARG248     -0.2864
     28  CB        71.6960  167.4830   46.1250 C.3   248  ARG248      0.0334
     29  CG        71.9260  167.9550   44.6990 C.3   248  ARG248      0.0492
     30  CD        72.0780  169.4750   44.6220 C.3   248  ARG248      0.2205
     31  NE        73.0610  169.9760   45.5810 N.pl3 248  ARG248     -0.0865
     32  CZ        73.3780  171.2570   45.7590 C.cat 248  ARG248      0.5346
     33  NH1       72.8050  172.1950   45.0270 N.pl3 248  ARG248      0.1354
     34  NH2       74.2320  171.6040   46.7150 N.pl3 248  ARG248      0.1354
     35  N         71.5890  161.7280   47.1230 N.3   251  HIS251     -0.1226
     36  CA        72.7600  161.2300   46.4330 C.3   251  HIS251      0.1752
     37  C         73.9560  161.2710   47.3750 C.2   251  HIS251      0.2595
     38  O         74.7610  160.3320   47.3970 O.2   251  HIS251     -0.2718
     39  CB        73.0420  162.0170   45.1590 C.3   251  HIS251      0.0759
     40  CG        72.3120  161.4890   43.9660 C.ar  251  HIS251      0.0818
     41  ND1       72.6250  160.2810   43.3850 N.ar  251  HIS251     -0.2268
     42  CD2       71.2680  161.9840   43.2640 C.ar  251  HIS251      0.1154
     43  CE1       71.8060  160.0540   42.3750 C.ar  251  HIS251      0.1986
     44  NE2       70.9720  161.0740   42.2820 N.ar  251  HIS251     -0.2212
     45  N         74.0490  162.3250   48.1810 N.am  252  LEU252     -0.1980
     46  CA        75.1420  162.4440   49.1380 C.3   252  LEU252      0.1596
     47  C         75.0830  161.2840   50.1220 C.2   252  LEU252      0.2287
     48  O         76.1070  160.6590   50.3860 O.2   252  LEU252     -0.2864
     49  CB        75.0740  163.7620   49.8960 C.3   252  LEU252      0.0297
     50  CG        76.1330  163.8940   50.9900 C.3   252  LEU252      0.0022
     51  CD1       77.5140  164.0160   50.3580 C.3   252  LEU252      0.0001
     52  CD2       75.8330  165.0910   51.8840 C.3   252  LEU252      0.0001
     53  N         76.2480  158.1790   48.4720 N.3   255  GLU255     -0.1245
     54  CA        77.6900  158.2760   48.2380 C.3   255  GLU255      0.1567
     55  C         78.4890  158.0520   49.5200 C.2   255  GLU255      0.2260
     56  O         79.5550  157.4380   49.4990 O.2   255  GLU255     -0.2867
     57  CB        78.0600  159.6250   47.6320 C.3   255  GLU255      0.0388
     58  CG        77.6340  159.7780   46.1770 C.3   255  GLU255      0.1160
     59  CD        77.8010  161.2010   45.6470 C.2   255  GLU255      0.3649
     60  OE1       77.7650  162.1580   46.4290 O.co2 255  GLU255     -0.2457
     61  OE2       77.9690  161.3710   44.4320 O.co2 255  GLU255     -0.2457
     62  N         69.0320  156.1390   39.9010 N.3   287  ALA287     -0.1245
     63  CA        70.1790  157.0260   40.0610 C.3   287  ALA287      0.1562
     64  C         70.7940  156.8460   41.4470 C.2   287  ALA287      0.2260
     65  O         72.0140  156.8110   41.5990 O.2   287  ALA287     -0.2867
     66  CB        69.7710  158.4610   39.8680 C.3   287  ALA287      0.0290
     67  N         74.6480  155.5550   42.7930 N.3   291  SER291     -0.1217
     68  CA        75.5480  156.1510   43.7680 C.3   291  SER291      0.1889
     69  C         75.8480  155.1440   44.8790 C.2   291  SER291      0.2288
     70  O         76.9880  155.0030   45.2940 O.2   291  SER291     -0.2866
     71  CB        74.9040  157.3960   44.3850 C.3   291  SER291      0.2089
     72  OG        74.5800  158.3650   43.4040 O.3   291  SER291     -0.2183
     73  N         79.0810  154.6600   41.9750 N.3   295  GLU295     -0.1231
     74  CA        79.3490  155.7260   41.0200 C.3   295  GLU295      0.1699
     75  C         79.9970  156.8880   41.7200 C.2   295  GLU295      0.2592
     76  O         79.6490  157.2170   42.8560 O.2   295  GLU295     -0.2718
     77  CB        78.0780  156.2290   40.3800 C.3   295  GLU295      0.0402
     78  CG        77.4950  155.2660   39.4340 C.3   295  GLU295      0.1161
     79  CD        76.2090  155.7390   38.8400 C.2   295  GLU295      0.3649
     80  OE1       75.6820  156.7790   39.2690 O.co2 295  GLU295     -0.2457
     81  OE2       75.7190  155.0480   37.9380 O.co2 295  GLU295     -0.2457
     82  N         80.9540  157.4990   41.0350 N.am  296  LYS296     -0.1966
     83  CA        81.6560  158.6580   41.5580 C.3   296  LYS296      0.1728
     84  C         81.7350  159.7240   40.4860 C.2   296  LYS296      0.2616
     85  O         81.9100  159.4080   39.3200 O.2   296  LYS296     -0.2715
     86  CB        83.0370  158.2570   42.0360 C.3   296  LYS296      0.0311
     87  CG        82.9440  157.2530   43.1650 C.3   296  LYS296      0.0038
     88  CD        84.2210  157.1680   43.9380 C.3   296  LYS296      0.0206
     89  CE        84.5550  158.5080   44.5770 C.3   296  LYS296      0.1093
     90  NZ        85.8000  158.4280   45.3890 N.3   296  LYS296     -0.1314
     91  N         81.5450  160.9820   40.8720 N.am  297  LEU297     -0.1977
     92  CA        81.5850  162.0990   39.9200 C.3   297  LEU297      0.1596
     93  C         83.0240  162.4160   39.4860 C.2   297  LEU297      0.2287
     94  O         83.2720  162.7440   38.3290 O.2   297  LEU297     -0.2864
     95  CB        80.8980  163.3490   40.5140 C.3   297  LEU297      0.0297
     96  CG        79.4050  163.2330   40.8740 C.3   297  LEU297      0.0022
     97  CD1       78.9110  164.5530   41.4700 C.3   297  LEU297      0.0001
     98  CD2       78.5870  162.8800   39.6250 C.3   297  LEU297      0.0001
@<TRIPOS>BOND
     1     1     2    1
     2     2     3    1
     3     2     5    1
     4     3     4    2
     5     5     6    1
     6     7     8    1
     7     7     6    1
     8    10     9    1
     9     9     8    2
    10     9    11    1
    11    81    79   ar
    12    94    93    2
    13    79    80   ar
    14    79    78    1
    15    85    84    2
    16    78    77    1
    17    93    92    1
    18    98    96    1
    19    23    22    1
    20    66    63    1
    21    62    63    1
    22    92    95    1
    23    92    91    1
    24    63    64    1
    25    77    74    1
    26    84    91   am
    27    84    83    1
    28    95    96    1
    29    22    21   ar
    30    22    20   ar
    31    96    97    1
    32    74    75    1
    33    74    73    1
    34    82    83    1
    35    82    75   am
    36    21    19   ar
    37    20    18   ar
    38    64    65    2
    39    83    86    1
    40    75    76    2
    41    86    87    1
    42    19    17   ar
    43    44    43   ar
    44    44    42   ar
    45    43    41   ar
    46    18    17   ar
    47    17    16    1
    48    67    68    1
    49    87    88    1
    50    42    40   ar
    51    41    40   ar
    52    72    71    1
    53    68    71    1
    54    68    69    1
    55    16    13    1
    56    88    89    1
    57    40    39    1
    58    61    59   ar
    59    89    90    1
    60    30    29    1
    61    30    31    1
    62    29    28    1
    63    69    70    2
    64    33    32    1
    65    39    36    1
    66    13    14    1
    67    13    12    1
    68    31    32    2
    69    14    15    2
    70    14    24   am
    71    59    58    1
    72    59    60   ar
    73    32    34    1
    74    24    25    1
    75    28    25    1
    76    58    57    1
    77    25    26    1
    78    36    35    1
    79    36    37    1
    80    37    38    2
    81    37    45   am
    82    26    27    2
    83    57    54    1
    84    45    46    1
    85    54    53    1
    86    54    55    1
    87    46    49    1
    88    46    47    1
    89    56    55    2
    90    49    50    1
    91    47    48    2
    92    51    50    1
    93    50    52    1
