@<TRIPOS>MOLECULE
tmp/3cf0L00.pdb
 126 118 0 0 0
SMALL
GASTEIGER

@<TRIPOS>ATOM
      1  N        -11.5740  -42.7030 -113.1170 N.3    16  ASP16      -0.1225
      2  CA       -12.6280  -42.6440 -112.0900 C.3    16  ASP16       0.1805
      3  C        -13.7910  -41.7480 -112.4840 C.2    16  ASP16       0.2598
      4  O        -14.7900  -41.6860 -111.7610 O.2    16  ASP16      -0.2718
      5  CB       -12.0800  -42.0870 -110.7900 C.3    16  ASP16       0.1424
      6  CG       -10.8230  -42.7600 -110.3650 C.2    16  ASP16       0.3668
      7  OD1       -9.7170  -42.2650 -110.7150 O.co2  16  ASP16      -0.2456
      8  OD2      -10.9540  -43.7960 -109.6780 O.co2  16  ASP16      -0.2456
      9  N        -13.6370  -41.0380 -113.6030 N.am   17  ILE17      -0.1966
     10  CA       -14.6570  -40.1330 -114.0980 C.3    17  ILE17       0.1727
     11  C        -15.3960  -40.7320 -115.2750 C.2    17  ILE17       0.2616
     12  O        -14.8050  -40.9490 -116.3370 O.2    17  ILE17      -0.2715
     13  CB       -14.0400  -38.8200 -114.5540 C.3    17  ILE17       0.0290
     14  CG1      -13.3490  -38.1370 -113.3780 C.3    17  ILE17       0.0022
     15  CG2      -15.1100  -37.9300 -115.1410 C.3    17  ILE17       0.0023
     16  CD1      -12.6890  -36.8290 -113.7140 C.3    17  ILE17       0.0001
     17  N        -16.6910  -40.9800 -115.0890 N.am   18  GLY18      -0.1955
     18  CA       -17.5240  -41.5200 -116.1480 C.3    18  GLY18       0.1869
     19  C        -17.9990  -40.4300 -117.0820 C.2    18  GLY18       0.2309
     20  O        -18.5500  -39.4440 -116.6450 O.2    18  GLY18      -0.2863
     21  N        -18.1100  -37.4210 -119.9950 N.3    20  LEU20      -0.1245
     22  CA       -17.5020  -36.0950 -120.0870 C.3    20  LEU20       0.1561
     23  C        -16.2280  -36.0660 -120.9300 C.2    20  LEU20       0.2260
     24  O        -15.3210  -35.3140 -120.6350 O.2    20  LEU20      -0.2867
     25  CB       -17.1890  -35.5940 -118.6830 C.3    20  LEU20       0.0270
     26  CG       -18.3320  -35.4490 -117.6900 C.3    20  LEU20       0.0019
     27  CD1      -17.8080  -35.6720 -116.3060 C.3    20  LEU20       0.0001
     28  CD2      -18.9140  -34.0590 -117.7760 C.3    20  LEU20       0.0001
     29  N        -25.4320  -30.4630 -108.9710 N.3    58  PRO58      -0.2102
     30  CA       -24.5980  -31.1160 -107.9550 C.3    58  PRO58       0.1504
     31  C        -24.4710  -32.6210 -108.1770 C.2    58  PRO58       0.2576
     32  O        -25.4680  -33.3470 -108.4170 O.2    58  PRO58      -0.2718
     33  CB       -25.3850  -30.8940 -106.6620 C.3    58  PRO58       0.0282
     34  CG       -26.4720  -29.9920 -106.9940 C.3    58  PRO58       0.0208
     35  CD       -26.7570  -30.1350 -108.4110 C.3    58  PRO58       0.0893
     36  N        -23.2390  -33.0950 -108.0610 N.am   59  GLY59      -0.1943
     37  CA       -22.9480  -34.5220 -108.1250 C.3    59  GLY59       0.2014
     38  C        -22.8010  -34.9370 -109.5500 C.2    59  GLY59       0.2639
     39  O        -23.2900  -35.9860 -109.9360 O.2    59  GLY59      -0.2714
     40  N        -22.1140  -34.1020 -110.3240 N.am   60  CYS60      -0.1953
     41  CA       -21.8420  -34.4020 -111.7000 C.3    60  CYS60       0.1843
     42  C        -20.3550  -34.5240 -112.0470 C.2    60  CYS60       0.2626
     43  O        -19.9790  -34.8250 -113.2050 O.2    60  CYS60      -0.2714
     44  CB       -22.5390  -33.4150 -112.5570 C.3    60  CYS60       0.0997
     45  SG       -24.2020  -33.8390 -112.5030 S.3    60  CYS60      -0.0797
     46  N        -19.5100  -34.3430 -111.0360 N.am   61  GLY61      -0.1940
     47  CA       -18.0880  -34.5510 -111.2020 C.3    61  GLY61       0.2014
     48  C        -17.2660  -33.2910 -111.3710 C.2    61  GLY61       0.2639
     49  O        -16.1180  -33.3580 -111.8320 O.2    61  GLY61      -0.2714
     50  N        -17.8350  -32.1380 -110.9890 N.am   62  LYS62      -0.1963
     51  CA       -17.1100  -30.8630 -111.0020 C.3    62  LYS62       0.1728
     52  C        -15.8430  -30.9720 -110.1750 C.2    62  LYS62       0.2617
     53  O        -14.7850  -30.5680 -110.6130 O.2    62  LYS62      -0.2715
     54  CB       -17.9970  -29.7420 -110.5220 C.3    62  LYS62       0.0311
     55  CG       -18.8290  -29.1210 -111.6500 C.3    62  LYS62       0.0038
     56  CD       -19.5720  -27.8160 -111.2350 C.3    62  LYS62       0.0206
     57  CE       -21.0270  -28.0820 -110.6950 C.3    62  LYS62       0.1093
     58  NZ       -21.2010  -29.5050 -110.1150 N.3    62  LYS62      -0.1314
     59  N        -15.9280  -31.6040 -109.0180 N.am   63  THR63      -0.1937
     60  CA       -14.7230  -31.8290 -108.2430 C.3    63  THR63       0.2028
     61  C        -13.8060  -32.8900 -108.8960 C.2    63  THR63       0.2642
     62  O        -12.5730  -32.7060 -108.9480 O.2    63  THR63      -0.2714
     63  CB       -15.0780  -32.2000 -106.8030 C.3    63  THR63       0.1808
     64  OG1      -15.5790  -31.0440 -106.1280 O.3    63  THR63      -0.2208
     65  CG2      -13.8510  -32.6870 -106.0570 C.3    63  THR63       0.0379
     66  N        -14.3900  -33.9870 -109.3910 N.am   64  LEU64      -0.1977
     67  CA       -13.5340  -35.0250 -109.9770 C.3    64  LEU64       0.1596
     68  C        -12.6780  -34.4110 -111.0520 C.2    64  LEU64       0.2287
     69  O        -11.4300  -34.5890 -111.0700 O.2    64  LEU64      -0.2864
     70  CB       -14.3180  -36.1960 -110.5490 C.3    64  LEU64       0.0297
     71  CG       -15.1770  -36.8600 -109.4840 C.3    64  LEU64       0.0022
     72  CD1      -15.7770  -38.1390 -109.9810 C.3    64  LEU64       0.0001
     73  CD2      -14.4300  -37.0930 -108.1750 C.3    64  LEU64       0.0001
     74  N        -14.3370  -24.5090 -104.7710 N.3   115  ASP115     -0.1239
     75  CA       -15.6760  -25.0780 -104.8640 C.3   115  ASP115      0.1674
     76  C        -16.8140  -24.2240 -104.1320 C.2   115  ASP115      0.2266
     77  O        -16.5110  -23.3640 -103.2820 O.2   115  ASP115     -0.2867
     78  CB       -15.5940  -26.5140 -104.3730 C.3   115  ASP115      0.1410
     79  CG       -16.9360  -27.1100 -104.1690 C.2   115  ASP115      0.3668
     80  OD1      -17.6720  -27.2420 -105.2030 O.co2 115  ASP115     -0.2456
     81  OD2      -17.2390  -27.3960 -102.9730 O.co2 115  ASP115     -0.2456
     82  N        -23.0830  -24.4950 -108.4080 N.3   162  ASN162     -0.1240
     83  CA       -24.2940  -24.9570 -109.0150 C.3   162  ASN162      0.1653
     84  C        -25.3650  -23.9060 -108.9440 C.2   162  ASN162      0.2266
     85  O        -26.5360  -24.2250 -109.0610 O.2   162  ASN162     -0.2867
     86  CB       -24.7690  -26.2520 -108.3760 C.3   162  ASN162      0.1155
     87  CG       -24.7830  -26.1840 -106.8830 C.2   162  ASN162      0.2627
     88  OD1      -24.5020  -27.1950 -106.2350 O.2   162  ASN162     -0.2716
     89  ND2      -25.0710  -24.9920 -106.3050 N.am  162  ASN162     -0.0877
     90  N        -20.0980  -44.0520 -115.8130 N.3   194  ILE194     -0.1245
     91  CA       -20.0840  -43.7000 -114.3830 C.3   194  ILE194      0.1561
     92  C        -20.2130  -44.8970 -113.4580 C.2   194  ILE194      0.2260
     93  O        -19.5170  -44.9740 -112.4480 O.2   194  ILE194     -0.2867
     94  CB       -21.1680  -42.6670 -114.0470 C.3   194  ILE194      0.0252
     95  CG1      -20.8070  -41.3220 -114.6960 C.3   194  ILE194      0.0019
     96  CG2      -21.3180  -42.5170 -112.5140 C.3   194  ILE194      0.0019
     97  CD1      -21.9090  -40.2950 -114.6600 C.3   194  ILE194      0.0001
     98  N        -16.8860  -46.8490 -113.9500 N.3   197  ALA197     -0.1231
     99  CA       -15.8760  -46.0940 -113.1990 C.3   197  ALA197      0.1694
    100  C        -16.0170  -46.2950 -111.7020 C.2   197  ALA197      0.2592
    101  O        -15.0190  -46.5050 -111.0060 O.2   197  ALA197     -0.2718
    102  CB       -15.9710  -44.6320 -113.5100 C.3   197  ALA197      0.0304
    103  N        -17.2460  -46.2200 -111.2040 N.am  198  ASN198     -0.1974
    104  CA       -17.5030  -46.3650 -109.7830 C.3   198  ASN198      0.1688
    105  C        -17.2940  -47.7720 -109.2940 C.2   198  ASN198      0.2292
    106  O        -17.1900  -48.0060 -108.1000 O.2   198  ASN198     -0.2864
    107  CB       -18.9370  -45.9930 -109.5000 C.3   198  ASN198      0.1181
    108  CG       -19.0780  -44.6330 -108.8750 C.2   198  ASN198      0.2629
    109  OD1      -18.3230  -43.7010 -109.1510 O.2   198  ASN198     -0.2716
    110  ND2      -20.0690  -44.5110 -108.0230 N.am  198  ASN198     -0.0877
    111  N        -24.2920  -38.3350 -111.3440 N.3   222  GLY222     -0.1210
    112  CA       -23.2230  -39.2120 -110.9110 C.3   222  GLY222      0.1956
    113  C        -23.3380  -39.5700 -109.4340 C.2   222  GLY222      0.2611
    114  O        -23.2950  -40.7550 -109.0650 O.2   222  GLY222     -0.2717
    115  N        -23.4920  -38.5520 -108.5920 N.am  223  ALA223     -0.1979
    116  CA       -23.6470  -38.7720 -107.1800 C.3   223  ALA223      0.1597
    117  C        -24.7560  -39.7820 -106.9070 C.2   223  ALA223      0.2287
    118  O        -24.5360  -40.7930 -106.2220 O.2   223  ALA223     -0.2864
    119  CB       -23.9370  -37.5240 -106.5340 C.3   223  ALA223      0.0319
    120  N        -23.6280  -43.3560 -107.7900 N.3   226  THR226     -0.1218
    121  CA       -22.6900  -43.7440 -106.7620 C.3   226  THR226      0.1862
    122  C        -23.4380  -44.2440 -105.5620 C.2   226  THR226      0.2287
    123  O        -23.0950  -45.2840 -104.9770 O.2   226  THR226     -0.2866
    124  CB       -21.8540  -42.5420 -106.3690 C.3   226  THR226      0.1770
    125  OG1      -21.1200  -42.1270 -107.5200 O.3   226  THR226     -0.2211
    126  CG2      -20.8790  -42.8890 -105.2490 C.3   226  THR226      0.0375
@<TRIPOS>BOND
     1    23    24    2
     2    23    22    1
     3    22    21    1
     4    22    25    1
     5    25    26    1
     6    28    26    1
     7    26    27    1
     8    19    20    2
     9    19    18    1
    10    12    11    2
    11    18    17    1
    12    90    91    1
    13    11    17   am
    14    11    10    1
    15    15    13    1
    16    95    97    1
    17    95    94    1
    18    13    10    1
    19    13    14    1
    20    91    94    1
    21    91    92    1
    22    10     9    1
    23    94    96    1
    24    98    99    1
    25    16    14    1
    26     9     3   am
    27   102    99    1
    28    92    93    2
    29    43    42    2
    30    99   100    1
    31     1     2    1
    32    44    45    1
    33    44    41    1
    34     3     2    1
    35     3     4    2
    36     2     5    1
    37    42    41    1
    38    42    46   am
    39    49    48    2
    40   100   103   am
    41   100   101    2
    42    41    40    1
    43    55    56    1
    44    55    54    1
    45    48    47    1
    46    48    50   am
    47   111   112    1
    48    56    57    1
    49   103   104    1
    50    47    46    1
    51    69    68    2
    52    68    67    1
    53    51    50    1
    54    51    54    1
    55    51    52    1
    56   112   113    1
    57     5     6    1
    58     7     6   ar
    59    57    58    1
    60    53    52    2
    61    70    67    1
    62    70    71    1
    63     6     8   ar
    64    40    38   am
    65    52    59   am
    66    72    71    1
    67    67    66    1
    68    39    38    2
    69   104   107    1
    70   104   105    1
    71    38    37    1
    72   107   108    1
    73    71    73    1
    74   113   114    2
    75   113   115   am
    76    66    61   am
    77   105   106    2
    78   109   108    2
    79    85    84    2
    80    59    60    1
    81    83    84    1
    82    83    82    1
    83    83    86    1
    84    29    35    1
    85    29    30    1
    86    62    61    2
    87    61    60    1
    88   108   110   am
    89   115   116    1
    90    32    31    2
    91    35    34    1
    92    86    87    1
    93    60    63    1
    94    31    36   am
    95    31    30    1
    96    37    36    1
    97    30    33    1
    98   120   121    1
    99   125   124    1
   100   116   117    1
   101   116   119    1
   102    34    33    1
   103   117   118    2
   104    87    89   am
   105    87    88    2
   106    63    64    1
   107    63    65    1
   108   121   124    1
   109   121   122    1
   110   124   126    1
   111   122   123    2
   112    80    79   ar
   113    75    74    1
   114    75    78    1
   115    75    76    1
   116    78    79    1
   117    79    81   ar
   118    76    77    2
