@<TRIPOS>MOLECULE
tmp/3cf2C01.pdb
 146 140 0 0 0
SMALL
GASTEIGER

@<TRIPOS>ATOM
      1  N         30.9340  105.1930   20.4950 N.3   458  ASP458     -0.1225
      2  CA        31.4520  106.5230   20.1870 C.3   458  ASP458      0.1805
      3  C         32.6640  106.5010   19.2610 C.2   458  ASP458      0.2598
      4  O         33.5020  107.4020   19.3110 O.2   458  ASP458     -0.2718
      5  CB        31.8130  107.2680   21.4750 C.3   458  ASP458      0.1424
      6  CG        30.5950  107.7370   22.2390 C.2   458  ASP458      0.3668
      7  OD1       29.7670  106.8860   22.6280 O.co2 458  ASP458     -0.2456
      8  OD2       30.4630  108.9610   22.4500 O.co2 458  ASP458     -0.2456
      9  N         32.7480  105.4780   18.4140 N.am  459  ILE459     -0.1966
     10  CA        33.8550  105.3370   17.4700 C.3   459  ILE459      0.1727
     11  C         33.4350  104.5860   16.2140 C.2   459  ILE459      0.2616
     12  O         33.2680  103.3670   16.2240 O.2   459  ILE459     -0.2715
     13  CB        35.0560  104.6020   18.1130 C.3   459  ILE459      0.0290
     14  CG1       35.6210  105.4390   19.2600 C.3   459  ILE459      0.0022
     15  CG2       36.1520  104.3680   17.0770 C.3   459  ILE459      0.0023
     16  CD1       36.3550  104.6300   20.3150 C.3   459  ILE459      0.0001
     17  N         33.2630  105.3360   15.1300 N.am  460  GLY460     -0.1955
     18  CA        32.8720  104.7460   13.8680 C.3   460  GLY460      0.1869
     19  C         34.0510  104.6790   12.9210 C.2   460  GLY460      0.2309
     20  O         34.9640  105.5070   12.9890 O.2   460  GLY460     -0.2863
     21  N         47.8070  111.7280   13.1730 N.3   499  PRO499     -0.2103
     22  CA        47.2770  113.0990   13.1700 C.3   499  PRO499      0.1489
     23  C         46.2810  113.3700   14.2970 C.2   499  PRO499      0.2418
     24  O         45.6130  112.4520   14.7780 O.2   499  PRO499     -0.2734
     25  CB        46.6310  113.2060   11.8040 C.3   499  PRO499      0.0282
     26  CG        46.0730  111.8250   11.6190 C.3   499  PRO499      0.0208
     27  CD        47.2310  110.9570   12.0530 C.3   499  PRO499      0.0893
     28  N         46.1510  114.6420   14.7130 N.am  500  PRO500     -0.2718
     29  CA        45.2330  115.0450   15.7880 C.3   500  PRO500      0.1535
     30  C         43.7490  114.7030   15.5490 C.2   500  PRO500      0.2599
     31  O         43.3620  114.3620   14.4330 O.2   500  PRO500     -0.2715
     32  CB        45.4910  116.5430   15.8860 C.3   500  PRO500      0.0310
     33  CG        45.7960  116.9270   14.4860 C.3   500  PRO500      0.0237
     34  CD        46.7730  115.8310   14.0890 C.3   500  PRO500      0.0939
     35  N         42.9300  114.7830   16.5940 N.am  501  GLY501     -0.1941
     36  CA        41.5180  114.4950   16.4240 C.3   501  GLY501      0.2014
     37  C         41.2000  113.2520   15.6220 C.2   501  GLY501      0.2639
     38  O         40.1640  113.1920   14.9470 O.2   501  GLY501     -0.2714
     39  N         42.0830  112.2580   15.7170 N.am  502  CYS502     -0.1953
     40  CA        41.9460  111.0020   14.9730 C.3   502  CYS502      0.1843
     41  C         41.0940  109.9200   15.6690 C.2   502  CYS502      0.2626
     42  O         40.3740  109.1720   14.9870 O.2   502  CYS502     -0.2714
     43  CB        43.3210  110.4050   14.6540 C.3   502  CYS502      0.0997
     44  SG        43.4370  109.4850   13.0750 S.3   502  CYS502     -0.0797
     45  N         41.1690  109.8420   17.0010 N.am  503  GLY503     -0.1940
     46  CA        40.3890  108.8630   17.7350 C.3   503  GLY503      0.2014
     47  C         41.1360  108.0700   18.7980 C.2   503  GLY503      0.2639
     48  O         40.4880  107.4530   19.6440 O.2   503  GLY503     -0.2714
     49  N         42.4690  108.0580   18.7710 N.am  504  LYS504     -0.1963
     50  CA        43.2620  107.3270   19.7730 C.3   504  LYS504      0.1728
     51  C         42.6660  107.3110   21.1970 C.2   504  LYS504      0.2617
     52  O         42.3130  106.2600   21.7280 O.2   504  LYS504     -0.2715
     53  CB        44.6790  107.9160   19.8520 C.3   504  LYS504      0.0311
     54  CG        45.3490  108.1050   18.5290 C.3   504  LYS504      0.0038
     55  CD        46.6840  108.7760   18.7020 C.3   504  LYS504      0.0206
     56  CE        47.3470  109.0670   17.3740 C.3   504  LYS504      0.1093
     57  NZ        46.5090  109.9480   16.5210 N.3   504  LYS504     -0.1314
     58  N         42.5710  108.4850   21.8120 N.am  505  THR505     -0.1937
     59  CA        42.0250  108.6280   23.1660 C.3   505  THR505      0.2028
     60  C         40.6610  107.9480   23.3400 C.2   505  THR505      0.2642
     61  O         40.5500  106.9540   24.0630 O.2   505  THR505     -0.2714
     62  CB        41.8810  110.1260   23.5530 C.3   505  THR505      0.1808
     63  OG1       43.1620  110.7590   23.4830 O.3   505  THR505     -0.2208
     64  CG2       41.3160  110.2720   24.9510 C.3   505  THR505      0.0379
     65  N         39.6250  108.4700   22.6820 N.am  506  LEU506     -0.1977
     66  CA        38.2920  107.8860   22.8170 C.3   506  LEU506      0.1596
     67  C         38.2830  106.3700   22.5790 C.2   506  LEU506      0.2287
     68  O         37.2560  105.7110   22.7500 O.2   506  LEU506     -0.2864
     69  CB        37.3020  108.5720   21.8690 C.3   506  LEU506      0.0297
     70  CG        37.1130  110.0800   22.0710 C.3   506  LEU506      0.0022
     71  CD1       36.0720  110.6070   21.1070 C.3   506  LEU506      0.0001
     72  CD2       36.6900  110.3770   23.4990 C.3   506  LEU506      0.0001
     73  N         48.9230  110.1710   26.6310 N.3   557  ASP557     -0.1225
     74  CA        48.6440  110.9170   25.4160 C.3   557  ASP557      0.1805
     75  C         49.6800  112.0080   25.1950 C.2   557  ASP557      0.2597
     76  O         50.1110  112.6710   26.1380 O.2   557  ASP557     -0.2718
     77  CB        47.2490  111.5290   25.4600 C.3   557  ASP557      0.1424
     78  CG        46.8260  112.0720   24.1170 C.2   557  ASP557      0.3668
     79  OD1       46.9370  111.3220   23.1240 O.co2 557  ASP557     -0.2456
     80  OD2       46.3850  113.2370   24.0490 O.co2 557  ASP557     -0.2456
     81  N         50.0750  112.1870   23.9390 N.am  558  GLU558     -0.1979
     82  CA        51.0740  113.1840   23.5730 C.3   558  GLU558      0.1602
     83  C         52.4460  112.8020   24.1160 C.2   558  GLU558      0.2287
     84  O         53.0060  113.4980   24.9660 O.2   558  GLU558     -0.2864
     85  CB        50.6860  114.5680   24.1030 C.3   558  GLU558      0.0415
     86  CG        49.3600  115.0970   23.5840 C.3   558  GLU558      0.1163
     87  CD        49.1190  116.5440   23.9780 C.2   558  GLU558      0.3649
     88  OE1       49.2460  116.8610   25.1800 O.co2 558  GLU558     -0.2457
     89  OE2       48.8020  117.3650   23.0880 O.co2 558  GLU558     -0.2457
     90  N         50.7620  107.2330   22.7850 N.3   588  ALA588     -0.1245
     91  CA        50.2090  108.3310   21.9940 C.3   588  ALA588      0.1562
     92  C         51.2780  109.1140   21.2380 C.2   588  ALA588      0.2260
     93  O         50.9760  109.8210   20.2710 O.2   588  ALA588     -0.2867
     94  CB        49.4190  109.2690   22.8870 C.3   588  ALA588      0.0290
     95  N         51.6860  112.3520   17.0640 N.3   589  ASN589     -0.1240
     96  CA        51.6790  113.3880   16.0360 C.3   589  ASN589      0.1653
     97  C         53.0800  113.6600   15.4860 C.2   589  ASN589      0.2266
     98  O         53.2410  114.4350   14.5430 O.2   589  ASN589     -0.2867
     99  CB        51.0980  114.6980   16.5930 C.3   589  ASN589      0.1155
    100  CG        49.6090  114.6050   16.9030 C.2   589  ASN589      0.2627
    101  OD1       48.7880  114.3470   16.0180 O.2   589  ASN589     -0.2716
    102  ND2       49.2540  114.8250   18.1650 N.am  589  ASN589     -0.0877
    103  N         31.2370  108.8460   11.9950 N.3   616  ILE616     -0.1245
    104  CA        31.7710  109.5960   13.1430 C.3   616  ILE616      0.1561
    105  C         30.9140  110.8590   13.2900 C.2   616  ILE616      0.2260
    106  O         31.1390  111.6910   14.1740 O.2   616  ILE616     -0.2867
    107  CB        33.3010  109.9660   12.9330 C.3   616  ILE616      0.0252
    108  CG1       34.1600  108.6950   12.9150 C.3   616  ILE616      0.0019
    109  CG2       33.8100  110.8810   14.0610 C.3   616  ILE616      0.0019
    110  CD1       35.6350  108.9220   12.5960 C.3   616  ILE616      0.0001
    111  N         27.7000  109.2220   15.6790 N.3   619  ALA619     -0.1231
    112  CA        28.0230  109.0850   17.0890 C.3   619  ALA619      0.1694
    113  C         28.4670  110.4430   17.6130 C.2   619  ALA619      0.2592
    114  O         29.0600  110.5430   18.6860 O.2   619  ALA619     -0.2718
    115  CB        29.1290  108.0620   17.2730 C.3   619  ALA619      0.0304
    116  N         28.1720  111.4870   16.8430 N.am  620  ASN620     -0.1974
    117  CA        28.5370  112.8480   17.2160 C.3   620  ASN620      0.1688
    118  C         27.3030  113.7490   17.2100 C.2   620  ASN620      0.2292
    119  O         27.4120  114.9700   17.3250 O.2   620  ASN620     -0.2864
    120  CB        29.5910  113.3880   16.2430 C.3   620  ASN620      0.1181
    121  CG        30.3170  114.6020   16.7830 C.2   620  ASN620      0.2629
    122  OD1       30.8690  114.5720   17.8820 O.2   620  ASN620     -0.2716
    123  ND2       30.3310  115.6740   16.0070 N.am  620  ASN620     -0.0877
    124  N         39.4040  117.4780   13.8120 N.3   628  ASP628     -0.1225
    125  CA        38.5870  118.4100   13.0460 C.3   628  ASP628      0.1805
    126  C         37.1730  117.8730   12.8820 C.2   628  ASP628      0.2598
    127  O         36.2200  118.6420   12.7780 O.2   628  ASP628     -0.2718
    128  CB        39.1910  118.6440   11.6530 C.3   628  ASP628      0.1424
    129  CG        40.4770  119.4510   11.6910 C.2   628  ASP628      0.3668
    130  OD1       40.4680  120.5650   12.2590 O.co2 628  ASP628     -0.2456
    131  OD2       41.4930  118.9770   11.1380 O.co2 628  ASP628     -0.2456
    132  N         37.0490  116.5500   12.8630 N.am  629  LEU629     -0.1966
    133  CA        35.7610  115.8860   12.6830 C.3   629  LEU629      0.1728
    134  C         34.5730  116.5130   13.4080 C.2   629  LEU629      0.2616
    135  O         33.4780  116.5910   12.8500 O.2   629  LEU629     -0.2715
    136  CB        35.8730  114.4090   13.0750 C.3   629  LEU629      0.0311
    137  CG        36.7720  113.5420   12.1870 C.3   629  LEU629      0.0022
    138  CD1       36.7350  112.1060   12.6830 C.3   629  LEU629      0.0001
    139  CD2       36.3050  113.6190   10.7360 C.3   629  LEU629      0.0001
    140  N         34.7780  116.9580   14.6430 N.am  630  THR630     -0.1951
    141  CA        33.6890  117.5620   15.4080 C.3   630  THR630      0.1897
    142  C         33.7260  119.0870   15.3560 C.2   630  THR630      0.2313
    143  O         32.7650  119.7560   15.7470 O.2   630  THR630     -0.2863
    144  CB        33.7310  117.1060   16.8780 C.3   630  THR630      0.1794
    145  OG1       33.7250  115.6750   16.9290 O.3   630  THR630     -0.2208
    146  CG2       32.5190  117.6300   17.6350 C.3   630  THR630      0.0378
@<TRIPOS>BOND
     1   139   137    1
     2   131   129   ar
     3    26    25    1
     4    26    27    1
     5   128   129    1
     6   128   125    1
     7   129   130   ar
     8    25    22    1
     9   103   104    1
    10    27    21    1
    11   137   138    1
    12   137   136    1
    13   110   108    1
    14   133   132    1
    15   133   136    1
    16   133   134    1
    17   127   126    2
    18   135   134    2
    19   132   126   am
    20   126   125    1
    21   108   107    1
    22    19    20    2
    23    19    18    1
    24   107   104    1
    25   107   109    1
    26   125   124    1
    27    44    43    1
    28   104   105    1
    29    22    21    1
    30    22    23    1
    31   105   106    2
    32   134   140   am
    33    18    17    1
    34    34    33    1
    35    34    28    1
    36    23    28   am
    37    23    24    2
    38    31    30    2
    39    33    32    1
    40    98    97    2
    41   140   141    1
    42    43    40    1
    43    28    29    1
    44    38    37    2
    45    40    41    1
    46    40    39    1
    47    42    41    2
    48    17    11   am
    49   142   141    1
    50   142   143    2
    51   141   144    1
    52    97    96    1
    53    30    29    1
    54    30    35   am
    55    37    39   am
    56    37    36    1
    57    41    45   am
    58   111   112    1
    59    29    32    1
    60   123   121   am
    61   101   100    2
    62    96    99    1
    63    96    95    1
    64    11    12    2
    65    11    10    1
    66   120   121    1
    67   120   117    1
    68    36    35    1
    69    57    56    1
    70    99   100    1
    71   121   122    2
    72   116   117    1
    73   116   113   am
    74   144   145    1
    75   144   146    1
    76   100   102   am
    77    45    46    1
    78    15    13    1
    79   112   115    1
    80   112   113    1
    81   118   117    1
    82   118   119    2
    83    56    55    1
    84    10    13    1
    85    10     9    1
    86   113   114    2
    87    46    47    1
    88    13    14    1
    89     9     3   am
    90    54    55    1
    91    54    53    1
    92    49    47   am
    93    49    50    1
    94    47    48    2
    95    14    16    1
    96     3     4    2
    97     3     2    1
    98    50    53    1
    99    50    51    1
   100     2     1    1
   101     2     5    1
   102    93    92    2
   103    71    70    1
   104    51    52    2
   105    51    58   am
   106    92    91    1
   107     5     6    1
   108    58    59    1
   109    69    70    1
   110    69    66    1
   111    91    90    1
   112    91    94    1
   113    70    72    1
   114     6     8   ar
   115     6     7   ar
   116    67    68    2
   117    67    66    1
   118    65    66    1
   119    65    60   am
   120    89    87   ar
   121    79    78   ar
   122    59    60    1
   123    59    62    1
   124    60    61    2
   125    63    62    1
   126    62    64    1
   127    82    81    1
   128    82    85    1
   129    82    83    1
   130    86    87    1
   131    86    85    1
   132    81    75   am
   133    87    88   ar
   134    80    78   ar
   135    83    84    2
   136    78    77    1
   137    75    74    1
   138    75    76    2
   139    74    77    1
   140    74    73    1
