@<TRIPOS>MOLECULE
tmp/3cf4B00.pdb
 87 81 0 0 0
SMALL
GASTEIGER

@<TRIPOS>ATOM
      1  N         67.8730   -6.1380   43.9670 N.3    16  ASN16      -0.1225
      2  CA        68.8510   -6.9400   44.6990 C.3    16  ASN16       0.1785
      3  C         70.1500   -6.1830   44.9870 C.2    16  ASN16       0.2597
      4  O         70.8260   -5.7210   44.0700 O.2    16  ASN16      -0.2718
      5  CB        69.1570   -8.2210   43.9180 C.3    16  ASN16       0.1169
      6  CG        67.9870   -9.1890   43.9090 C.2    16  ASN16       0.2627
      7  OD1       67.5540   -9.6700   44.9550 O.2    16  ASN16      -0.2716
      8  ND2       67.4640   -9.4700   42.7260 N.am   16  ASN16      -0.0877
      9  N         70.5010   -6.0480   46.2610 N.am   17  THR17      -0.1953
     10  CA        71.7270   -5.3450   46.6030 C.3    17  THR17       0.1897
     11  C         72.4490   -6.0390   47.7520 C.2    17  THR17       0.2313
     12  O         71.8600   -6.8370   48.4860 O.2    17  THR17      -0.2863
     13  CB        71.4440   -3.8510   46.9470 C.3    17  THR17       0.1794
     14  OG1       72.6730   -3.1200   46.9390 O.3    17  THR17      -0.2208
     15  CG2       70.7880   -3.7120   48.3100 C.3    17  THR17       0.0378
     16  N         81.2480   -8.5530   38.6730 N.3   124  LEU124     -0.1245
     17  CA        80.4820   -9.2860   39.6700 C.3   124  LEU124      0.1561
     18  C         79.0440   -9.5930   39.2660 C.2   124  LEU124      0.2260
     19  O         78.4190  -10.4770   39.8590 O.2   124  LEU124     -0.2867
     20  CB        80.4770   -8.5320   41.0050 C.3   124  LEU124      0.0270
     21  CG        81.7790   -8.5240   41.8140 C.3   124  LEU124      0.0019
     22  CD1       81.5200   -7.9010   43.1860 C.3   124  LEU124      0.0001
     23  CD2       82.2890   -9.9390   41.9840 C.3   124  LEU124      0.0001
     24  N         78.6520  -13.4990   38.4280 N.3   127  ALA127     -0.1231
     25  CA        78.5370  -14.3980   39.5840 C.3   127  ALA127      0.1694
     26  C         77.2240  -14.1720   40.3590 C.2   127  ALA127      0.2591
     27  O         76.5970  -15.1150   40.8430 O.2   127  ALA127     -0.2718
     28  CB        79.7460  -14.2050   40.5260 C.3   127  ALA127      0.0304
     29  N         76.8190  -12.9160   40.4770 N.am  128  LYS128     -0.1980
     30  CA        75.5850  -12.5500   41.1860 C.3   128  LYS128      0.1596
     31  C         74.3340  -13.2390   40.6210 C.2   128  LYS128      0.2287
     32  O         73.4990  -13.7520   41.3700 O.2   128  LYS128     -0.2864
     33  CB        75.3940  -11.0330   41.1130 C.3   128  LYS128      0.0298
     34  CG        74.1930  -10.4990   41.8830 C.3   128  LYS128      0.0038
     35  CD        73.9330   -9.0460   41.5340 C.3   128  LYS128      0.0206
     36  CE        72.6770   -8.5020   42.2140 C.3   128  LYS128      0.1093
     37  NZ        72.2840   -7.1570   41.6760 N.3   128  LYS128     -0.1314
     38  N         75.5490  -17.7440   39.5160 N.3   131  SER131     -0.1217
     39  CA        76.3000  -18.6350   40.3890 C.3   131  SER131      0.1889
     40  C         75.7880  -18.4610   41.8050 C.2   131  SER131      0.2288
     41  O         74.9970  -17.5550   42.0730 O.2   131  SER131     -0.2866
     42  CB        77.7870  -18.2850   40.3590 C.3   131  SER131      0.2089
     43  OG        78.0530  -17.1590   41.1850 O.3   131  SER131     -0.2183
     44  N         78.0850  -18.2950   44.1760 N.3   133  LEU133     -0.1231
     45  CA        79.3620  -17.8970   44.7750 C.3   133  LEU133      0.1693
     46  C         79.1610  -16.7130   45.7110 C.2   133  LEU133      0.2592
     47  O         78.4410  -15.7730   45.3840 O.2   133  LEU133     -0.2718
     48  CB        80.3550  -17.4920   43.6890 C.3   133  LEU133      0.0284
     49  CG        81.6770  -16.9020   44.1840 C.3   133  LEU133      0.0019
     50  CD1       82.4240  -17.9410   45.0360 C.3   133  LEU133      0.0001
     51  CD2       82.5260  -16.4750   42.9900 C.3   133  LEU133      0.0001
     52  N         79.7900  -16.7630   46.8770 N.am  134  LYS134     -0.1966
     53  CA        79.6860  -15.6690   47.8370 C.3   134  LYS134      0.1728
     54  C         80.8510  -14.7230   47.6080 C.2   134  LYS134      0.2616
     55  O         81.9740  -15.1740   47.3700 O.2   134  LYS134     -0.2715
     56  CB        79.7250  -16.2060   49.2680 C.3   134  LYS134      0.0311
     57  CG        78.5110  -17.0730   49.6450 C.3   134  LYS134      0.0038
     58  CD        77.2120  -16.2630   49.6010 C.3   134  LYS134      0.0206
     59  CE        76.0640  -16.9460   50.3720 C.3   134  LYS134      0.1093
     60  NZ        75.2870  -17.9460   49.5630 N.3   134  LYS134     -0.1314
     61  N         80.5760  -13.4180   47.6570 N.am  135  THR135     -0.1951
     62  CA        81.6020  -12.4010   47.4640 C.3   135  THR135      0.1897
     63  C         81.4880  -11.3150   48.5360 C.2   135  THR135      0.2313
     64  O         80.3900  -10.9940   48.9950 O.2   135  THR135     -0.2863
     65  CB        81.4940  -11.7050   46.0660 C.3   135  THR135      0.1794
     66  OG1       80.2570  -10.9890   45.9720 O.3   135  THR135     -0.2208
     67  CG2       81.5600  -12.7220   44.9470 C.3   135  THR135      0.0378
     68  N         76.6130   -5.1140   43.7320 N.3   145  ASN145     -0.1225
     69  CA        76.6210   -6.5070   43.2830 C.3   145  ASN145      0.1785
     70  C         77.4200   -7.5770   44.0330 C.2   145  ASN145      0.2597
     71  O         77.5370   -8.7110   43.5540 O.2   145  ASN145     -0.2718
     72  CB        76.9370   -6.5660   41.7770 C.3   145  ASN145      0.1169
     73  CG        75.8790   -5.8620   40.9310 C.2   145  ASN145      0.2627
     74  OD1       74.7720   -5.5500   41.4130 O.2   145  ASN145     -0.2716
     75  ND2       76.2050   -5.6080   39.6650 N.am  145  ASN145     -0.0877
     76  N         77.9580   -7.2350   45.1990 N.am  146  ALA146     -0.1966
     77  CA        78.6740   -8.2140   46.0080 C.3   146  ALA146      0.1728
     78  C         77.6140   -8.8830   46.8900 C.2   146  ALA146      0.2616
     79  O         76.4830   -8.3860   46.9860 O.2   146  ALA146     -0.2715
     80  CB        79.7080   -7.5180   46.8840 C.3   146  ALA146      0.0334
     81  N         77.9530  -10.0030   47.5260 N.am  147  THR147     -0.1951
     82  CA        76.9790  -10.6560   48.4080 C.3   147  THR147      0.1897
     83  C         76.8650   -9.7340   49.6170 C.2   147  THR147      0.2313
     84  O         75.7740   -9.4740   50.1170 O.2   147  THR147     -0.2863
     85  CB        77.4460  -12.0560   48.8720 C.3   147  THR147      0.1794
     86  OG1       77.7530  -12.8530   47.7250 O.3   147  THR147     -0.2208
     87  CG2       76.3380  -12.7510   49.6740 C.3   147  THR147      0.0378
@<TRIPOS>BOND
     1    24    25    1
     2    16    17    1
     3    18    17    1
     4    18    19    2
     5    38    39    1
     6    25    26    1
     7    25    28    1
     8    75    73   am
     9    17    20    1
    10    42    39    1
    11    42    43    1
    12    26    29   am
    13    26    27    2
    14    39    40    1
    15    29    30    1
    16    31    30    1
    17    31    32    2
    18    73    74    2
    19    73    72    1
    20    20    21    1
    21    33    30    1
    22    33    34    1
    23    35    34    1
    24    35    36    1
    25    37    36    1
    26    72    69    1
    27    40    41    2
    28    21    23    1
    29    21    22    1
    30     8     6   am
    31    51    49    1
    32    69    68    1
    33    69    70    1
    34    71    70    2
    35    48    49    1
    36    48    45    1
    37     6     5    1
    38     6     7    2
    39     5     2    1
    40     1     2    1
    41    70    76   am
    42     4     3    2
    43    44    45    1
    44    49    50    1
    45     2     3    1
    46    45    46    1
    47    67    65    1
    48     3     9   am
    49    76    77    1
    50    47    46    2
    51    46    52   am
    52    66    65    1
    53    77    80    1
    54    77    78    1
    55    65    62    1
    56     9    10    1
    57    10    13    1
    58    10    11    1
    59    52    53    1
    60    78    79    2
    61    78    81   am
    62    14    13    1
    63    13    15    1
    64    55    54    2
    65    62    61    1
    66    62    63    1
    67    81    82    1
    68    54    61   am
    69    54    53    1
    70    86    85    1
    71    11    12    2
    72    53    56    1
    73    82    85    1
    74    82    83    1
    75    63    64    2
    76    85    87    1
    77    56    57    1
    78    60    59    1
    79    58    57    1
    80    58    59    1
    81    83    84    2
