@<TRIPOS>MOLECULE
tmp/3cf8C01.pdb
 125 123 0 0 0
SMALL
GASTEIGER

@<TRIPOS>ATOM
      1  N         -7.2970  -19.2200  -31.0150 N.3    12  ILE12      -0.1231
      2  CA        -6.7720  -19.2440  -32.3880 C.3    12  ILE12       0.1692
      3  C         -5.6880  -18.1890  -32.6330 C.2    12  ILE12       0.2592
      4  O         -4.6200  -18.4920  -33.1920 O.2    12  ILE12      -0.2718
      5  CB        -7.9070  -19.1300  -33.4550 C.3    12  ILE12       0.0266
      6  CG1       -8.9670  -20.2370  -33.2660 C.3    12  ILE12       0.0019
      7  CG2       -7.3240  -19.0990  -34.8750 C.3    12  ILE12       0.0020
      8  CD1       -8.4640  -21.6720  -33.4090 C.3    12  ILE12       0.0001
      9  N         -5.9730  -16.9570  -32.2160 N.am   13  LEU13      -0.1966
     10  CA        -5.0070  -15.8630  -32.3140 C.3    13  LEU13       0.1713
     11  C         -4.0730  -15.8580  -31.0940 C.2    13  LEU13       0.2458
     12  O         -4.5110  -16.1350  -29.9860 O.2    13  LEU13      -0.2730
     13  CB        -5.7170  -14.5030  -32.4850 C.3    13  LEU13       0.0310
     14  CG        -6.7230  -14.3190  -33.6430 C.3    13  LEU13       0.0022
     15  CD1       -7.2300  -12.8830  -33.7300 C.3    13  LEU13       0.0001
     16  CD2       -6.1490  -14.7420  -34.9830 C.3    13  LEU13       0.0001
     17  N         -2.7720  -15.5820  -31.3080 N.am   14  PRO14      -0.2716
     18  CA        -1.8220  -15.4220  -30.2020 C.3    14  PRO14       0.1536
     19  C         -1.9240  -14.0540  -29.5020 C.2    14  PRO14       0.2598
     20  O         -1.4150  -13.8920  -28.3950 O.2    14  PRO14      -0.2715
     21  CB        -0.4600  -15.5510  -30.8980 C.3    14  PRO14       0.0310
     22  CG        -0.6990  -15.0190  -32.2580 C.3    14  PRO14       0.0237
     23  CD        -2.1150  -15.4270  -32.6200 C.3    14  PRO14       0.0939
     24  N         -2.5700  -13.0930  -30.1630 N.am   15  HIS15      -0.1974
     25  CA        -2.7700  -11.7370  -29.6520 C.3    15  HIS15       0.1656
     26  C         -3.4610  -11.7240  -28.2930 C.2    15  HIS15       0.2291
     27  O         -4.4050  -12.4840  -28.0430 O.2    15  HIS15      -0.2864
     28  CB        -3.6070  -10.9190  -30.6360 C.3    15  HIS15       0.0771
     29  CG        -2.9790  -10.7530  -31.9830 C.ar   15  HIS15       0.0820
     30  ND1       -2.8890  -11.7820  -32.8950 N.ar   15  HIS15      -0.2267
     31  CD2       -2.4310   -9.6690  -32.5830 C.ar   15  HIS15       0.1154
     32  CE1       -2.2970  -11.3450  -33.9920 C.ar   15  HIS15       0.1986
     33  NE2       -2.0090  -10.0650  -33.8280 N.ar   15  HIS15      -0.2212
     34  N         -6.6010   -6.9290  -40.1270 N.3    67  ALA67      -0.1231
     35  CA        -5.5590   -7.9400  -40.3020 C.3    67  ALA67       0.1694
     36  C         -5.8200   -9.1680  -39.4210 C.2    67  ALA67       0.2591
     37  O         -5.6890  -10.3100  -39.8740 O.2    67  ALA67      -0.2718
     38  CB        -4.1810   -7.3450  -40.0160 C.3    67  ALA67       0.0304
     39  N         -6.2240   -8.9370  -38.1740 N.am   68  GLN68      -0.1979
     40  CA        -6.5240  -10.0400  -37.2520 C.3    68  GLN68       0.1601
     41  C         -7.7070  -10.8920  -37.7210 C.2    68  GLN68       0.2287
     42  O         -7.6930  -12.1160  -37.5590 O.2    68  GLN68      -0.2864
     43  CB        -6.7260   -9.5310  -35.8200 C.3    68  GLN68       0.0394
     44  CG        -5.4600   -8.9560  -35.1910 C.3    68  GLN68       0.0908
     45  CD        -5.6810   -8.3510  -33.8080 C.2    68  GLN68       0.2608
     46  OE1       -6.6640   -8.6380  -33.1370 O.2    68  GLN68      -0.2717
     47  NE2       -4.7470   -7.5170  -33.3760 N.am   68  GLN68      -0.0878
     48  N         -6.4610  -12.9060  -40.7410 N.3    71  GLY71      -0.1225
     49  CA        -5.6780  -14.0080  -40.2000 C.3    71  GLY71       0.1811
     50  C         -6.5120  -15.1530  -39.6580 C.2    71  GLY71       0.2280
     51  O         -6.2150  -16.3170  -39.9220 O.2    71  GLY71      -0.2866
     52  N         -6.3940  -18.8700  -41.2240 N.3    75  PHE75      -0.1241
     53  CA        -6.1320  -20.0420  -40.3810 C.3    75  PHE75       0.1605
     54  C         -7.2880  -21.0490  -40.3720 C.2    75  PHE75       0.2264
     55  O         -7.0750  -22.2430  -40.5920 O.2    75  PHE75      -0.2867
     56  CB        -5.7500  -19.6710  -38.9380 C.3    75  PHE75       0.0534
     57  CG        -5.4390  -20.8730  -38.0910 C.ar   75  PHE75      -0.0203
     58  CD1       -4.1360  -21.3420  -37.9810 C.ar   75  PHE75      -0.0042
     59  CD2       -6.4620  -21.5830  -37.4650 C.ar   75  PHE75      -0.0042
     60  CE1       -3.8540  -22.4850  -37.2370 C.ar   75  PHE75      -0.0003
     61  CE2       -6.1900  -22.7280  -36.7250 C.ar   75  PHE75      -0.0003
     62  CZ        -4.8850  -23.1770  -36.6120 C.ar   75  PHE75      -0.0000
     63  N         -3.0650  -24.0440  -33.9700 N.3    86  ALA86      -0.1245
     64  CA        -2.9480  -22.5880  -33.8610 C.3    86  ALA86       0.1562
     65  C         -1.6420  -22.1640  -33.1840 C.2    86  ALA86       0.2260
     66  O         -0.9830  -21.2270  -33.6360 O.2    86  ALA86      -0.2867
     67  CB        -4.1600  -22.0010  -33.1480 C.3    86  ALA86       0.0290
     68  N          1.5630  -22.0620  -35.5770 N.3    89  LYS89      -0.1231
     69  CA         1.4890  -21.2430  -36.7880 C.3    89  LYS89       0.1693
     70  C          1.7290  -19.7660  -36.5160 C.2    89  LYS89       0.2592
     71  O          1.3470  -19.2440  -35.4620 O.2    89  LYS89      -0.2718
     72  CB         0.1180  -21.4050  -37.4600 C.3    89  LYS89       0.0285
     73  CG        -0.2500  -22.8330  -37.8530 C.3    89  LYS89       0.0035
     74  CD         0.7610  -23.4320  -38.8180 C.3    89  LYS89       0.0206
     75  CE         0.5810  -24.9320  -38.9090 C.3    89  LYS89       0.1093
     76  NZ         1.6700  -25.5810  -39.6630 N.3    89  LYS89      -0.1314
     77  N          2.3710  -19.0970  -37.4700 N.am   90  ILE90      -0.1966
     78  CA         2.4530  -17.6310  -37.4560 C.3    90  ILE90       0.1727
     79  C          1.8650  -17.0680  -38.7570 C.2    90  ILE90       0.2616
     80  O          2.0580  -17.6380  -39.8310 O.2    90  ILE90      -0.2715
     81  CB         3.9120  -17.0820  -37.1580 C.3    90  ILE90       0.0290
     82  CG1        4.6500  -16.6330  -38.4170 C.3    90  ILE90       0.0022
     83  CG2        4.7630  -18.0790  -36.4010 C.3    90  ILE90       0.0023
     84  CD1        4.7170  -15.1330  -38.5470 C.3    90  ILE90       0.0001
     85  N          1.1200  -15.9730  -38.6490 N.am   91  VAL91      -0.1963
     86  CA         0.6560  -15.2360  -39.8260 C.3    91  VAL91       0.1727
     87  C          1.4210  -13.9090  -39.9230 C.2    91  VAL91       0.2616
     88  O          1.1410  -12.9720  -39.1720 O.2    91  VAL91      -0.2715
     89  CB        -0.8790  -14.9990  -39.8040 C.3    91  VAL91       0.0290
     90  CG1       -1.3490  -14.3430  -41.0960 C.3    91  VAL91       0.0023
     91  CG2       -1.6270  -16.3080  -39.5970 C.3    91  VAL91       0.0023
     92  N          2.3960  -13.8460  -40.8350 N.am   92  TYR92      -0.1960
     93  CA         3.2300  -12.6470  -41.0210 C.3    92  TYR92       0.1771
     94  C          2.6260  -11.7340  -42.0840 C.2    92  TYR92       0.2619
     95  O          2.5720  -12.0930  -43.2610 O.2    92  TYR92      -0.2715
     96  CB         4.6750  -13.0280  -41.4030 C.3    92  TYR92       0.0574
     97  CG         5.6710  -11.8750  -41.3320 C.ar   92  TYR92      -0.0198
     98  CD1        6.2390  -11.4970  -40.1090 C.ar   92  TYR92      -0.0009
     99  CD2        6.0500  -11.1600  -42.4830 C.ar   92  TYR92      -0.0009
    100  CE1        7.1610  -10.4310  -40.0220 C.ar   92  TYR92       0.0417
    101  CE2        6.9700  -10.0860  -42.4100 C.ar   92  TYR92       0.0417
    102  CZ         7.5210   -9.7320  -41.1710 C.ar   92  TYR92       0.1957
    103  OH         8.4240   -8.6880  -41.0570 O.3    92  TYR92      -0.2866
    104  N          2.1690  -10.5550  -41.6720 N.am   93  PHE93      -0.1974
    105  CA         1.6680   -9.5630  -42.6270 C.3    93  PHE93       0.1639
    106  C          2.8050   -8.8090  -43.2970 C.2    93  PHE93       0.2290
    107  O          3.6400   -8.1960  -42.6290 O.2    93  PHE93      -0.2864
    108  CB         0.6430   -8.6280  -41.9840 C.3    93  PHE93       0.0560
    109  CG        -0.7400   -9.2110  -41.9460 C.ar   93  PHE93      -0.0200
    110  CD1       -1.1420  -10.0150  -40.8810 C.ar   93  PHE93      -0.0042
    111  CD2       -1.6300   -8.9900  -43.0010 C.ar   93  PHE93      -0.0042
    112  CE1       -2.4160  -10.5680  -40.8470 C.ar   93  PHE93      -0.0003
    113  CE2       -2.9110   -9.5420  -42.9830 C.ar   93  PHE93      -0.0003
    114  CZ        -3.3040  -10.3350  -41.9030 C.ar   93  PHE93      -0.0000
    115  N          5.6990  -21.6120  -36.5340 N.3   150  ARG150     -0.1245
    116  CA         6.2550  -20.9730  -35.3400 C.3   150  ARG150      0.1563
    117  C          7.5850  -21.6310  -34.9550 C.2   150  ARG150      0.2260
    118  O          7.9450  -22.6940  -35.4680 O.2   150  ARG150     -0.2867
    119  CB         5.2570  -21.0170  -34.1710 C.3   150  ARG150      0.0307
    120  CG         5.5060  -19.9580  -33.0930 C.3   150  ARG150      0.0489
    121  CD         4.3550  -19.8360  -32.0940 C.3   150  ARG150      0.2205
    122  NE         3.1520  -19.2320  -32.6800 N.pl3 150  ARG150     -0.0865
    123  CZ         1.9990  -19.0480  -32.0320 C.cat 150  ARG150      0.5346
    124  NH1        1.8690  -19.4150  -30.7590 N.pl3 150  ARG150      0.1354
    125  NH2        0.9640  -18.4970  -32.6590 N.pl3 150  ARG150      0.1354
@<TRIPOS>BOND
     1   106   107    2
     2   106   105    1
     3    95    94    2
     4   111   113   ar
     5   111   109   ar
     6   113   114   ar
     7   105   108    1
     8   105   104    1
     9    99   101   ar
    10    99    97   ar
    11   101   102   ar
    12    94   104   am
    13    94    93    1
    14   108   109    1
    15   109   110   ar
    16   114   112   ar
    17    96    97    1
    18    96    93    1
    19    97    98   ar
    20    52    53    1
    21   102   103    1
    22   102   100   ar
    23    90    89    1
    24    93    92    1
    25   110   112   ar
    26    92    87   am
    27    48    49    1
    28    55    54    2
    29    53    54    1
    30    53    56    1
    31    35    34    1
    32    35    38    1
    33    35    36    1
    34    49    50    1
    35    98   100   ar
    36    87    86    1
    37    87    88    2
    38    51    50    2
    39    37    36    2
    40    80    79    2
    41    86    89    1
    42    86    85    1
    43    89    91    1
    44    76    75    1
    45    36    39   am
    46    56    57    1
    47    75    74    1
    48    74    73    1
    49    79    85   am
    50    79    78    1
    51    84    82    1
    52    82    81    1
    53    39    40    1
    54    57    58   ar
    55    57    59   ar
    56    58    60   ar
    57    73    72    1
    58    41    42    2
    59    41    40    1
    60    77    78    1
    61    77    70   am
    62    59    61   ar
    63    72    69    1
    64    78    81    1
    65    40    43    1
    66    60    62   ar
    67    81    83    1
    68    69    70    1
    69    69    68    1
    70    61    62   ar
    71   115   116    1
    72    70    71    2
    73    43    44    1
    74   118   117    2
    75   116   117    1
    76   116   119    1
    77    44    45    1
    78    16    14    1
    79     7     5    1
    80   119   120    1
    81    32    33   ar
    82    32    30   ar
    83    63    64    1
    84    64    65    1
    85    64    67    1
    86    33    31   ar
    87    45    47   am
    88    45    46    2
    89    15    14    1
    90    14    13    1
    91    66    65    2
    92     5     6    1
    93     5     2    1
    94     8     6    1
    95     4     3    2
    96   120   121    1
    97    30    29   ar
    98   122   121    1
    99   122   123    2
   100   125   123    1
   101     3     2    1
   102     3     9   am
   103    23    22    1
   104    23    17    1
   105    31    29   ar
   106    13    10    1
   107     2     1    1
   108    10     9    1
   109    10    11    1
   110    22    21    1
   111   123   124    1
   112    29    28    1
   113    17    11   am
   114    17    18    1
   115    11    12    2
   116    21    18    1
   117    28    25    1
   118    18    19    1
   119    24    25    1
   120    24    19   am
   121    25    26    1
   122    19    20    2
   123    26    27    2
