@<TRIPOS>MOLECULE
tmp/3cfbC00.pdb
 100 98 0 0 0
SMALL
GASTEIGER

@<TRIPOS>ATOM
      1  N        142.0920    8.4920    6.7020 N.3    39  TYR39      -0.1241
      2  CA       140.6880    8.7660    6.3840 C.3    39  TYR39       0.1605
      3  C        140.1340    9.7650    7.3830 C.2    39  TYR39       0.2264
      4  O        140.6380    9.9480    8.4750 O.2    39  TYR39      -0.2867
      5  CB       139.7850    7.5040    6.2370 C.3    39  TYR39       0.0534
      6  CG       139.5980    6.6870    7.4930 C.ar   39  TYR39      -0.0201
      7  CD1      140.5620    5.7840    7.9820 C.ar   39  TYR39      -0.0009
      8  CD2      138.4320    6.7730    8.2000 C.ar   39  TYR39      -0.0009
      9  CE1      140.3570    5.1010    9.1220 C.ar   39  TYR39       0.0417
     10  CE2      138.2360    6.0920    9.3680 C.ar   39  TYR39       0.0417
     11  CZ       139.1640    5.2220    9.8220 C.ar   39  TYR39       0.1957
     12  OH       138.9470    4.5640   11.0020 O.3    39  TYR39      -0.2866
     13  N        136.3040   11.2320    8.9900 N.3    41  TYR41      -0.1241
     14  CA       134.8550   11.0230    9.1960 C.3    41  TYR41       0.1605
     15  C        134.2670   12.1180   10.0730 C.2    41  TYR41       0.2264
     16  O        134.9740   12.8340   10.7660 O.2    41  TYR41      -0.2867
     17  CB       134.5500    9.6140    9.6280 C.3    41  TYR41       0.0534
     18  CG       135.0680    9.2440   11.0120 C.ar   41  TYR41      -0.0201
     19  CD1      134.3310    9.4210   12.1440 C.ar   41  TYR41      -0.0009
     20  CD2      136.3550    8.6560   11.1140 C.ar   41  TYR41      -0.0009
     21  CE1      134.8790    9.0340   13.3990 C.ar   41  TYR41       0.0417
     22  CE2      136.8510    8.2590   12.3300 C.ar   41  TYR41       0.0417
     23  CZ       136.1530    8.4690   13.4250 C.ar   41  TYR41       0.1957
     24  OH       136.6840    8.1260   14.6940 O.3    41  TYR41      -0.2866
     25  N        131.1570   13.2620   12.7900 N.3    43  GLN43      -0.1196
     26  CA       130.1420   12.8700   13.7900 C.3    43  GLN43       0.1782
     27  C        129.2410   14.0440   14.0600 C.2    43  GLN43       0.2306
     28  O        129.6940   15.1200   14.4040 O.2    43  GLN43      -0.2863
     29  CB       130.8160   12.3770   15.1030 C.2    43  GLN43       0.0051
     30  CG       131.6170   11.0630   15.0160 C.2    43  GLN43       0.0584
     31  CD       132.0360   10.4240   16.3280 C.2    43  GLN43       0.2840
     32  OE1      131.8360   10.9840   17.4310 O.2    43  GLN43      -0.2667
     33  NE2      132.6210    9.2140   16.2220 N.am   43  GLN43      -0.0837
     34  N        128.3260    8.0460   12.4360 N.3    49  PRO49      -0.2116
     35  CA       129.5230    8.6530   11.8030 C.3    49  PRO49       0.1372
     36  C        129.4690    8.4980   10.2860 C.2    49  PRO49       0.2244
     37  O        128.9750    7.4860    9.8010 O.2    49  PRO49      -0.2868
     38  CB       130.6680    7.8190   12.3350 C.3    49  PRO49       0.0268
     39  CG       130.1600    7.2610   13.5780 C.3    49  PRO49       0.0207
     40  CD       128.7230    7.0450   13.4350 C.3    49  PRO49       0.0892
     41  N        143.5720    6.3180   10.8920 N.3    95  GLN95      -0.1231
     42  CA       144.4300    5.5930    9.9760 C.3    95  GLN95       0.1698
     43  C        143.9610    4.1590    9.7270 C.2    95  GLN95       0.2592
     44  O        143.5240    3.4840   10.6600 O.2    95  GLN95      -0.2718
     45  CB       145.8990    5.5770   10.4100 C.3    95  GLN95       0.0381
     46  CG       146.1600    4.8660   11.7240 C.3    95  GLN95       0.0905
     47  CD       146.3570    3.2980   11.6150 C.2    95  GLN95       0.2608
     48  OE1      146.5840    2.7400   10.5320 O.2    95  GLN95      -0.2717
     49  NE2      146.2370    2.6240   12.7530 N.am   95  GLN95      -0.0878
     50  N        144.0860    3.7430    8.4630 N.am   96  ASN96      -0.1960
     51  CA       143.8020    2.3480    8.1330 C.3    96  ASN96       0.1819
     52  C        144.9820    1.7070    7.4010 C.2    96  ASN96       0.2621
     53  O        144.8460    0.8620    6.5060 O.2    96  ASN96      -0.2715
     54  CB       142.4650    2.1570    7.4200 C.3    96  ASN96       0.1195
     55  CG       142.3790    2.7970    6.0720 C.2    96  ASN96       0.2630
     56  OD1      143.0700    3.7550    5.7570 O.2    96  ASN96      -0.2716
     57  ND2      141.4190    2.3280    5.3000 N.am   96  ASN96      -0.0877
     58  N        146.1800    2.0890    7.8510 N.am   97  LEU97      -0.1963
     59  CA       147.4060    1.4880    7.3070 C.3    97  LEU97       0.1728
     60  C        147.6780    0.1290    7.9640 C.2    97  LEU97       0.2616
     61  O        148.1110   -0.8420    7.3410 O.2    97  LEU97      -0.2715
     62  CB       148.5770    2.4160    7.5920 C.3    97  LEU97       0.0311
     63  CG       149.9530    1.9220    7.1200 C.3    97  LEU97       0.0022
     64  CD1      150.1150    2.0080    5.6090 C.3    97  LEU97       0.0001
     65  CD2      151.1030    2.6710    7.8380 C.3    97  LEU97       0.0001
     66  N        147.4430    0.0540    9.2630 N.am   98  GLU98      -0.1963
     67  CA       147.8080   -1.1430   10.0220 C.3    98  GLU98       0.1733
     68  C        146.9880   -1.3370   11.2470 C.2    98  GLU98       0.2616
     69  O        146.4090   -0.3840   11.7660 O.2    98  GLU98      -0.2715
     70  CB       149.3020   -1.2100   10.3230 C.3    98  GLU98       0.0429
     71  CG       149.8360   -0.1950   11.0820 C.3    98  GLU98       0.1163
     72  CD       151.4160   -0.1780   11.0350 C.2    98  GLU98       0.3649
     73  OE1      152.1310   -0.1490    9.9840 O.co2  98  GLU98      -0.2457
     74  OE2      151.9360   -0.1890   12.1040 O.co2  98  GLU98      -0.2457
     75  N        146.9820   -2.5630   11.7640 N.am   99  LEU99      -0.1977
     76  CA       146.4100   -2.8010   13.0900 C.3    99  LEU99       0.1596
     77  C        147.4120   -2.4440   14.1470 C.2    99  LEU99       0.2287
     78  O        148.6150   -2.6100   13.9490 O.2    99  LEU99      -0.2864
     79  CB       146.0620   -4.2760   13.2130 C.3    99  LEU99       0.0297
     80  CG       145.0480   -4.8490   12.2510 C.3    99  LEU99       0.0022
     81  CD1      144.8360   -6.4020   12.4240 C.3    99  LEU99       0.0001
     82  CD2      143.6600   -4.1820   12.3810 C.3    99  LEU99       0.0001
     83  N        143.6900   -0.5540   14.7170 N.3   101  PRO101     -0.2116
     84  CA       143.0910    0.6700   14.2400 C.3   101  PRO101      0.1372
     85  C        143.1590    1.7180   15.3150 C.2   101  PRO101      0.2244
     86  O        142.8990    1.4470   16.4890 O.2   101  PRO101     -0.2868
     87  CB       141.6280    0.2570   13.9910 C.3   101  PRO101      0.0268
     88  CG       141.6870   -1.2530   13.8770 C.3   101  PRO101      0.0207
     89  CD       142.7100   -1.6420   14.8520 C.3   101  PRO101      0.0892
     90  N        142.4490    6.1430   16.0650 N.3   103  PHE103     -0.1241
     91  CA       141.5530    7.2470   15.7440 C.3   103  PHE103      0.1605
     92  C        141.9910    8.5080   16.4680 C.2   103  PHE103      0.2264
     93  O        142.4490    8.4370   17.6150 O.2   103  PHE103     -0.2867
     94  CB       140.1300    6.9140   16.2610 C.3   103  PHE103      0.0534
     95  CG       139.6630    5.5460   15.8720 C.ar  103  PHE103     -0.0203
     96  CD1      139.0190    5.3450   14.6950 C.ar  103  PHE103     -0.0042
     97  CD2      139.8670    4.4590   16.6810 C.ar  103  PHE103     -0.0042
     98  CE1      138.6030    4.1050   14.3020 C.ar  103  PHE103     -0.0003
     99  CE2      139.4710    3.1750   16.2900 C.ar  103  PHE103     -0.0003
    100  CZ       138.8590    3.0230   15.1140 C.ar  103  PHE103     -0.0000
@<TRIPOS>BOND
     1    57    55   am
     2    64    63    1
     3    56    55    2
     4    55    54    1
     5     5     2    1
     6     5     6    1
     7     2     1    1
     8     2     3    1
     9    53    52    2
    10    63    62    1
    11    63    65    1
    12    59    62    1
    13    59    58    1
    14    59    60    1
    15    61    60    2
    16     3     4    2
    17    52    58   am
    18    52    51    1
    19    54    51    1
    20     6     7   ar
    21     6     8   ar
    22    60    66   am
    23     7     9   ar
    24    51    50    1
    25     8    10   ar
    26    50    43   am
    27    13    14    1
    28     9    11   ar
    29    14    17    1
    30    14    15    1
    31    66    67    1
    32    10    11   ar
    33    17    18    1
    34    43    42    1
    35    43    44    2
    36    37    36    2
    37    11    12    1
    38    42    45    1
    39    42    41    1
    40    73    72   ar
    41    67    70    1
    42    67    68    1
    43    15    16    2
    44    36    35    1
    45    70    71    1
    46    45    46    1
    47    48    47    2
    48    18    20   ar
    49    18    19   ar
    50    72    71    1
    51    72    74   ar
    52    20    22   ar
    53    68    75   am
    54    68    69    2
    55    47    46    1
    56    47    49   am
    57    75    76    1
    58    35    38    1
    59    35    34    1
    60    19    21   ar
    61    80    82    1
    62    80    81    1
    63    80    79    1
    64    22    23   ar
    65    38    39    1
    66    34    40    1
    67    25    26    1
    68    76    79    1
    69    76    77    1
    70    21    23   ar
    71    23    24    1
    72    40    39    1
    73    26    27    1
    74    26    29    1
    75    88    87    1
    76    88    89    1
    77    78    77    2
    78    87    84    1
    79    27    28    2
    80    84    83    1
    81    84    85    1
    82    98    96   ar
    83    98   100   ar
    84    96    95   ar
    85    83    89    1
    86    30    29    2
    87    30    31    1
    88   100    99   ar
    89    85    86    2
    90    91    90    1
    91    91    94    1
    92    91    92    1
    93    95    94    1
    94    95    97   ar
    95    33    31   am
    96    99    97   ar
    97    31    32    2
    98    92    93    2
