@<TRIPOS>MOLECULE
tmp/3cfdB00.pdb
 134 130 0 0 0
SMALL
GASTEIGER

@<TRIPOS>ATOM
      1  N          6.4510  -26.6350   51.4150 N.3    34  ALA34      -0.1245
      2  CA         7.1970  -25.6870   50.6170 C.3    34  ALA34       0.1562
      3  C          7.2010  -24.3860   51.3850 C.2    34  ALA34       0.2260
      4  O          6.2850  -24.1090   52.1700 O.2    34  ALA34      -0.2867
      5  CB         6.5460  -25.4980   49.2520 C.3    34  ALA34       0.0290
      6  N          7.5010  -20.3710   51.0940 N.3    36  ASN36      -0.1240
      7  CA         7.2480  -19.4300   50.0090 C.3    36  ASN36       0.1653
      8  C          7.5720  -17.9700   50.3210 C.2    36  ASN36       0.2266
      9  O          7.4710  -17.5190   51.4650 O.2    36  ASN36      -0.2867
     10  CB         5.7840  -19.5310   49.5670 C.3    36  ASN36       0.1155
     11  CG         5.3840  -20.9450   49.1220 C.2    36  ASN36       0.2627
     12  OD1        5.3200  -21.2530   47.9090 O.2    36  ASN36      -0.2716
     13  ND2        5.0800  -21.8030   50.1060 N.am   36  ASN36      -0.0877
     14  N          6.1400  -14.2440   48.9850 N.3    38  LEU38      -0.1245
     15  CA         5.1080  -13.5440   48.2200 C.3    38  LEU38       0.1561
     16  C          5.1740  -12.0410   48.5050 C.2    38  LEU38       0.2260
     17  O          5.7540  -11.6170   49.5130 O.2    38  LEU38      -0.2867
     18  CB         3.6890  -14.0230   48.5860 C.3    38  LEU38       0.0270
     19  CG         3.3560  -15.5220   48.6290 C.3    38  LEU38       0.0019
     20  CD1        3.3760  -16.0620   50.0830 C.3    38  LEU38       0.0001
     21  CD2        2.0070  -15.8330   47.9300 C.3    38  LEU38       0.0001
     22  N          3.0060  -14.2560   43.9040 N.3    48  TRP48      -0.1241
     23  CA         3.9530  -15.2780   44.3830 C.3    48  TRP48       0.1605
     24  C          5.3400  -15.0630   43.7710 C.2    48  TRP48       0.2264
     25  O          5.4760  -14.8180   42.5510 O.2    48  TRP48      -0.2867
     26  CB         3.4450  -16.6640   44.0260 C.3    48  TRP48       0.0550
     27  CG         4.3260  -17.8310   44.3950 C.ar   48  TRP48       0.0003
     28  CD1        4.3900  -18.4650   45.6080 C.ar   48  TRP48       0.0946
     29  CD2        5.2110  -18.5480   43.5320 C.ar   48  TRP48       0.0152
     30  NE1        5.2680  -19.5160   45.5520 N.ar   48  TRP48      -0.2442
     31  CE2        5.7760  -19.5920   44.2850 C.ar   48  TRP48       0.0810
     32  CE3        5.5780  -18.4130   42.1850 C.ar   48  TRP48       0.0012
     33  CZ2        6.6870  -20.4710   43.7510 C.ar   48  TRP48       0.0191
     34  CZ3        6.4930  -19.2830   41.6590 C.ar   48  TRP48       0.0001
     35  CH2        7.0370  -20.3030   42.4340 C.ar   48  TRP48       0.0015
     36  N          9.5830  -20.4250   45.9260 N.3    51  TYR51      -0.1241
     37  CA         9.6980  -21.2610   47.1240 C.3    51  TYR51       0.1605
     38  C         10.9890  -22.0200   47.2050 C.2    51  TYR51       0.2264
     39  O         11.7230  -22.1260   46.2310 O.2    51  TYR51      -0.2867
     40  CB         8.5110  -22.2230   47.2960 C.3    51  TYR51       0.0534
     41  CG         8.3680  -23.3580   46.2910 C.ar   51  TYR51      -0.0201
     42  CD1        9.3850  -24.2840   46.0800 C.ar   51  TYR51      -0.0009
     43  CD2        7.1650  -23.5540   45.6130 C.ar   51  TYR51      -0.0009
     44  CE1        9.2260  -25.3380   45.1710 C.ar   51  TYR51       0.0417
     45  CE2        6.9980  -24.5940   44.6990 C.ar   51  TYR51       0.0417
     46  CZ         8.0170  -25.4820   44.4820 C.ar   51  TYR51       0.1957
     47  OH         7.8260  -26.4960   43.5740 O.3    51  TYR51      -0.2866
     48  N         11.8300  -22.9640   43.0990 N.3    59  ARG59      -0.1245
     49  CA        11.1110  -22.4940   41.9110 C.3    59  ARG59       0.1563
     50  C         10.7870  -21.0110   42.0500 C.2    59  ARG59       0.2260
     51  O         10.6230  -20.4990   43.1800 O.2    59  ARG59      -0.2867
     52  CB         9.8320  -23.2930   41.7300 C.3    59  ARG59       0.0307
     53  CG        10.0850  -24.7560   41.6800 C.3    59  ARG59       0.0489
     54  CD        10.3910  -25.2180   40.2960 C.3    59  ARG59       0.2205
     55  NE         9.0690  -25.3110   39.6570 N.pl3  59  ARG59      -0.0865
     56  CZ         8.8760  -25.8860   38.4790 C.cat  59  ARG59       0.5346
     57  NH1        9.9490  -26.4130   37.8640 N.pl3  59  ARG59       0.1354
     58  NH2        7.6770  -25.9290   37.8960 N.pl3  59  ARG59       0.1354
     59  N          5.2170  -17.5920   53.6250 N.3    97  ALA97      -0.1245
     60  CA         4.0750  -18.5160   53.8250 C.3    97  ALA97       0.1562
     61  C          4.4710  -19.9610   53.6180 C.2    97  ALA97       0.2260
     62  O          5.2990  -20.2690   52.7780 O.2    97  ALA97      -0.2867
     63  CB         2.9330  -18.1700   52.8920 C.3    97  ALA97       0.0290
     64  N          3.2770  -23.6780   52.4390 N.3    99  SER99      -0.1202
     65  CA         2.2570  -24.2540   51.5820 C.3    99  SER99       0.2020
     66  C          2.4980  -25.7240   51.3690 C.2    99  SER99       0.2619
     67  O          3.6040  -26.2140   51.5990 O.2    99  SER99      -0.2717
     68  CB         2.2160  -23.5530   50.2170 C.3    99  SER99       0.2103
     69  OG         3.3500  -23.8690   49.4210 O.3    99  SER99      -0.2182
     70  N          1.4400  -26.4150   50.9300 N.am  100  ASP100     -0.1959
     71  CA         1.5530  -27.7630   50.3840 C.3   100  ASP100      0.1840
     72  C          2.6120  -27.7090   49.3160 C.2   100  ASP100      0.2622
     73  O          2.6920  -26.7280   48.5470 O.2   100  ASP100     -0.2715
     74  CB         0.2550  -28.2140   49.7100 C.3   100  ASP100      0.1450
     75  CG        -0.9060  -28.3680   50.6870 C.2   100  ASP100      0.3671
     76  OD1       -0.7050  -28.9180   51.8040 O.co2 100  ASP100     -0.2456
     77  OD2       -2.0320  -27.9530   50.3080 O.co2 100  ASP100     -0.2456
     78  N          3.4390  -28.7380   49.2840 N.am  101  TYR101     -0.1960
     79  CA         4.3480  -28.9300   48.1880 C.3   101  TYR101      0.1771
     80  C          3.5970  -29.7590   47.1490 C.2   101  TYR101      0.2620
     81  O          3.6980  -30.9710   47.1340 O.2   101  TYR101     -0.2715
     82  CB         5.6140  -29.6450   48.6610 C.3   101  TYR101      0.0574
     83  CG         6.6260  -29.8690   47.5460 C.ar  101  TYR101     -0.0198
     84  CD1        7.0330  -28.8230   46.7270 C.ar  101  TYR101     -0.0009
     85  CD2        7.1680  -31.1130   47.3120 C.ar  101  TYR101     -0.0009
     86  CE1        7.9430  -29.0140   45.7400 C.ar  101  TYR101      0.0417
     87  CE2        8.0740  -31.3090   46.3170 C.ar  101  TYR101      0.0417
     88  CZ         8.4570  -30.2520   45.5320 C.ar  101  TYR101      0.1957
     89  OH         9.3630  -30.4370   44.5260 O.3   101  TYR101     -0.2866
     90  N          2.8380  -29.0880   46.2890 N.am  102  GLY102     -0.1940
     91  CA         1.9420  -29.7670   45.3650 C.3   102  GLY102      0.2014
     92  C          0.6030  -30.0680   46.0160 C.2   102  GLY102      0.2638
     93  O          0.1120  -29.2960   46.8330 O.2   102  GLY102     -0.2714
     94  N          0.0550  -31.2340   45.7110 N.am  103  ASN103     -0.1972
     95  CA        -1.3320  -31.5660   46.0020 C.3   103  ASN103      0.1688
     96  C         -2.2880  -30.3720   45.9430 C.2   103  ASN103      0.2292
     97  O         -2.4600  -29.8050   44.8720 O.2   103  ASN103     -0.2864
     98  CB        -1.5020  -32.4260   47.2780 C.3   103  ASN103      0.1181
     99  CG        -0.7440  -31.8890   48.4880 C.2   103  ASN103      0.2629
    100  OD1       -1.3360  -31.2500   49.3920 O.2   103  ASN103     -0.2716
    101  ND2        0.5610  -32.1810   48.5430 N.am  103  ASN103     -0.0877
    102  N         -2.0590  -27.3330   47.0020 N.3   105  GLY105     -0.1210
    103  CA        -1.4160  -26.0190   46.8070 C.3   105  GLY105      0.1956
    104  C         -1.9490  -24.9120   47.7010 C.2   105  GLY105      0.2612
    105  O         -2.0760  -23.7590   47.2830 O.2   105  GLY105     -0.2717
    106  N         -2.2680  -25.2480   48.9380 N.am  106  ARG106     -0.1965
    107  CA        -2.8160  -24.2520   49.8180 C.3   106  ARG106      0.1729
    108  C         -1.7290  -23.6880   50.7250 C.2   106  ARG106      0.2616
    109  O         -0.8240  -24.4240   51.1330 O.2   106  ARG106     -0.2715
    110  CB        -4.0000  -24.8350   50.5950 C.3   106  ARG106      0.0348
    111  CG        -3.6470  -25.6410   51.7900 C.3   106  ARG106      0.0492
    112  CD        -4.5970  -26.7910   51.9910 C.3   106  ARG106      0.2205
    113  NE        -3.8400  -28.0260   52.1800 N.pl3 106  ARG106     -0.0865
    114  CZ        -4.3500  -29.1660   52.6180 C.cat 106  ARG106      0.5346
    115  NH1       -5.6250  -29.2490   52.9550 N.pl3 106  ARG106      0.1354
    116  NH2       -3.5770  -30.2200   52.7370 N.pl3 106  ARG106      0.1354
    117  N         -1.7920  -22.3790   50.9920 N.am  107  GLY107     -0.1955
    118  CA        -0.8860  -21.7240   51.9440 C.3   107  GLY107      0.1869
    119  C         -1.5450  -21.7450   53.3170 C.2   107  GLY107      0.2309
    120  O         -2.5010  -20.9960   53.5620 O.2   107  GLY107     -0.2863
    121  N          0.7350  -18.0790   57.4070 N.3   110  TRP110     -0.1241
    122  CA         1.3530  -16.9120   56.8350 C.3   110  TRP110      0.1605
    123  C          1.9900  -16.0420   57.8970 C.2   110  TRP110      0.2264
    124  O          1.4210  -15.8330   58.9660 O.2   110  TRP110     -0.2867
    125  CB         0.3180  -16.0430   56.1150 C.3   110  TRP110      0.0550
    126  CG        -0.3320  -16.6600   54.9210 C.ar  110  TRP110      0.0003
    127  CD1       -1.0800  -17.7910   54.8920 C.ar  110  TRP110      0.0946
    128  CD2       -0.3450  -16.1320   53.5860 C.ar  110  TRP110      0.0152
    129  NE1       -1.5450  -18.0170   53.6170 N.ar  110  TRP110     -0.2442
    130  CE2       -1.1010  -17.0210   52.7950 C.ar  110  TRP110      0.0810
    131  CE3        0.2080  -14.9930   52.9850 C.ar  110  TRP110      0.0012
    132  CZ2       -1.3240  -16.8150   51.4370 C.ar  110  TRP110      0.0191
    133  CZ3        0.0010  -14.7960   51.6220 C.ar  110  TRP110      0.0001
    134  CH2       -0.7680  -15.7040   50.8650 C.ar  110  TRP110      0.0015
@<TRIPOS>BOND
     1    57    56    1
     2    58    56    1
     3    56    55    2
     4    55    54    1
     5    54    53    1
     6    34    32   ar
     7    34    35   ar
     8    53    52    1
     9    52    49    1
    10    49    50    1
    11    49    48    1
    12    50    51    2
    13    32    29   ar
    14    35    33   ar
    15    25    24    2
    16    29    31   ar
    17    29    27   ar
    18    47    46    1
    19    33    31   ar
    20    24    23    1
    21    22    23    1
    22    26    23    1
    23    26    27    1
    24    31    30   ar
    25    27    28   ar
    26    46    45   ar
    27    46    44   ar
    28    89    88    1
    29    45    43   ar
    30    97    96    2
    31    44    42   ar
    32    91    92    1
    33    91    90    1
    34    88    86   ar
    35    88    87   ar
    36    30    28   ar
    37    43    41   ar
    38    94    95    1
    39    94    92   am
    40    86    84   ar
    41    36    37    1
    42    96    95    1
    43    95    98    1
    44    92    93    2
    45    42    41   ar
    46    39    38    2
    47    90    80   am
    48    41    40    1
    49    87    85   ar
    50    84    83   ar
    51   103   102    1
    52   103   104    1
    53    37    38    1
    54    37    40    1
    55    81    80    2
    56    80    79    1
    57    98    99    1
    58   105   104    2
    59    85    83   ar
    60    83    82    1
    61   104   106   am
    62    12    11    2
    63    21    19    1
    64    79    82    1
    65    79    78    1
    66    15    16    1
    67    15    18    1
    68    15    14    1
    69    99   101   am
    70    99   100    2
    71    16    17    2
    72    73    72    2
    73    18    19    1
    74    19    20    1
    75   106   107    1
    76    11    10    1
    77    11    13   am
    78     5     2    1
    79    78    72   am
    80    72    71    1
    81    69    68    1
    82    10     7    1
    83    74    71    1
    84    74    75    1
    85   107   110    1
    86   107   108    1
    87     7     8    1
    88     7     6    1
    89    68    65    1
    90    77    75   ar
    91     8     9    2
    92    71    70    1
    93   110   111    1
    94     2     3    1
    95     2     1    1
    96    75    76   ar
    97   108   117   am
    98   108   109    2
    99   134   132   ar
   100   134   133   ar
   101    70    66   am
   102   117   118    1
   103    66    65    1
   104    66    67    2
   105     3     4    2
   106   132   130   ar
   107    65    64    1
   108   133   131   ar
   109   111   112    1
   110   118   119    1
   111   112   113    1
   112   113   114    2
   113   114   116    1
   114   114   115    1
   115    62    61    2
   116   130   128   ar
   117   130   129   ar
   118    63    60    1
   119   131   128   ar
   120   119   120    2
   121   128   126   ar
   122   129   127   ar
   123    61    60    1
   124    59    60    1
   125   127   126   ar
   126   126   125    1
   127   125   122    1
   128   122   121    1
   129   122   123    1
   130   123   124    2
