@<TRIPOS>MOLECULE
tmp/3cflA03.pdb
 91 89 0 0 0
SMALL
GASTEIGER

@<TRIPOS>ATOM
      1  N        -13.4740   16.3900   10.7990 N.3    89  THR89      -0.1203
      2  CA       -13.8290   14.9990   10.5480 C.3    89  THR89       0.1994
      3  C        -15.2250   14.9230    9.9330 C.2    89  THR89       0.2618
      4  O        -16.0810   15.7770   10.1990 O.2    89  THR89      -0.2717
      5  CB       -13.7770   14.1520   11.8320 C.3    89  THR89       0.1784
      6  OG1      -14.7360   14.6520   12.7690 O.3    89  THR89      -0.2211
      7  CG2      -12.3720   14.1720   12.4480 C.3    89  THR89       0.0376
      8  N        -15.4630   13.9050    9.1120 N.am   90  GLU90      -0.1965
      9  CA       -16.7710   13.7930    8.4650 C.3    90  GLU90       0.1733
     10  C        -17.7460   12.7970    9.0750 C.2    90  GLU90       0.2616
     11  O        -18.9580   12.9380    8.9230 O.2    90  GLU90      -0.2715
     12  CB       -16.6240   13.5770    6.9660 C.3    90  GLU90       0.0429
     13  CG       -16.3160   14.8920    6.2500 C.3    90  GLU90       0.1163
     14  CD       -15.8500   14.6840    4.8400 C.2    90  GLU90       0.3649
     15  OE1      -16.5440   13.9670    4.0880 O.co2  90  GLU90      -0.2457
     16  OE2      -14.7900   15.2360    4.4900 O.co2  90  GLU90      -0.2457
     17  N        -17.2490   11.8080    9.7840 N.am   91  GLY91      -0.1955
     18  CA       -18.1580   10.8550   10.3920 C.3    91  GLY91       0.1869
     19  C        -18.3790    9.7170    9.4160 C.2    91  GLY91       0.2309
     20  O        -18.2150    9.8800    8.1990 O.2    91  GLY91      -0.2863
     21  N        -25.2270    8.7040   10.8100 N.3   250  VAL250     -0.1245
     22  CA       -23.8360    9.0630   10.6620 C.3   250  VAL250      0.1561
     23  C        -23.1470    9.0380   12.0330 C.2   250  VAL250      0.2260
     24  O        -23.6110    9.6350   12.9980 O.2   250  VAL250     -0.2867
     25  CB       -23.6020   10.3720    9.8160 C.3   250  VAL250      0.0252
     26  CG1      -24.8480   11.2270    9.7400 C.3   250  VAL250      0.0019
     27  CG2      -22.3670   11.1600   10.2900 C.3   250  VAL250      0.0019
     28  N        -19.9000    9.4410   14.7370 N.3   252  PRO252     -0.2102
     29  CA       -18.6420   10.1580   14.9960 C.3   252  PRO252      0.1504
     30  C        -17.4350    9.2190   14.8610 C.2   252  PRO252      0.2575
     31  O        -17.4630    8.0570   15.3250 O.2   252  PRO252     -0.2718
     32  CB       -18.7940   10.6540   16.4340 C.3   252  PRO252      0.0282
     33  CG       -19.8290    9.7680   17.0470 C.3   252  PRO252      0.0208
     34  CD       -20.7660    9.3660   15.9310 C.3   252  PRO252      0.0893
     35  N        -16.3940    9.7120   14.2030 N.am  253  ASN253     -0.1975
     36  CA       -15.1820    8.9270   13.9980 C.3   253  ASN253      0.1688
     37  C        -14.5770    8.3700   15.2870 C.2   253  ASN253      0.2292
     38  O        -14.7690    8.9480   16.3770 O.2   253  ASN253     -0.2864
     39  CB       -14.1270    9.7420   13.2480 C.3   253  ASN253      0.1181
     40  CG       -14.5240   10.0330   11.8080 C.2   253  ASN253      0.2629
     41  OD1      -15.5260    9.5270   11.3120 O.2   253  ASN253     -0.2716
     42  ND2      -13.7190   10.8380   11.1250 N.am  253  ASN253     -0.0877
     43  N        -19.7460   16.9450   23.3980 N.3   318  GLU318     -0.1231
     44  CA       -19.6930   17.7510   22.2000 C.3   318  GLU318      0.1699
     45  C        -19.0550   16.9660   21.0690 C.2   318  GLU318      0.2592
     46  O        -19.4330   17.1310   19.9160 O.2   318  GLU318     -0.2718
     47  CB       -18.8750   19.0210   22.4350 C.3   318  GLU318      0.0402
     48  CG       -19.3880   19.9140   23.5500 C.3   318  GLU318      0.1161
     49  CD       -18.4260   21.0360   23.8590 C.2   318  GLU318      0.3649
     50  OE1      -17.2590   20.7650   24.2380 O.co2 318  GLU318     -0.2457
     51  OE2      -18.8420   22.2050   23.7250 O.co2 318  GLU318     -0.2457
     52  N        -18.0840   16.1220   21.3910 N.am  319  TYR319     -0.1962
     53  CA       -17.4280   15.3480   20.3670 C.3   319  TYR319      0.1771
     54  C        -18.4360   14.3690   19.7470 C.2   319  TYR319      0.2619
     55  O        -18.4610   14.1860   18.5390 O.2   319  TYR319     -0.2715
     56  CB       -16.1710   14.6030   20.8710 C.3   319  TYR319      0.0574
     57  CG       -15.5900   13.7750   19.7540 C.ar  319  TYR319     -0.0198
     58  CD1      -14.8560   14.3830   18.7340 C.ar  319  TYR319     -0.0009
     59  CD2      -15.8550   12.4160   19.6520 C.ar  319  TYR319     -0.0009
     60  CE1      -14.3710   13.6530   17.6710 C.ar  319  TYR319      0.0417
     61  CE2      -15.3800   11.6790   18.5890 C.ar  319  TYR319      0.0417
     62  CZ       -14.6440   12.3010   17.6020 C.ar  319  TYR319      0.1957
     63  OH       -14.1500   11.5910   16.5400 O.3   319  TYR319     -0.2866
     64  N        -19.2620   13.7570   20.5830 N.am  320  LEU320     -0.1963
     65  CA       -20.1920   12.7580   20.1080 C.3   320  LEU320      0.1728
     66  C        -21.4480   13.4000   19.4920 C.2   320  LEU320      0.2617
     67  O        -22.0350   12.8330   18.5630 O.2   320  LEU320     -0.2715
     68  CB       -20.5450   11.7650   21.2220 C.3   320  LEU320      0.0311
     69  CG       -19.4180   10.8820   21.7980 C.3   320  LEU320      0.0022
     70  CD1      -20.0020    9.9820   22.8750 C.3   320  LEU320      0.0001
     71  CD2      -18.6900   10.0400   20.7170 C.3   320  LEU320      0.0001
     72  N        -21.8390   14.5760   20.0090 N.am  321  GLY321     -0.1940
     73  CA       -23.0360   15.2880   19.5410 C.3   321  GLY321      0.2014
     74  C        -24.2740   14.9090   20.3360 C.2   321  GLY321      0.2640
     75  O        -24.3580   13.7780   20.8370 O.2   321  GLY321     -0.2714
     76  N        -25.2430   15.8320   20.4360 N.am  322  THR322     -0.1936
     77  CA       -26.4450   15.6200   21.2800 C.3   322  THR322      0.2028
     78  C        -27.3510   14.5670   20.6770 C.2   322  THR322      0.2642
     79  O        -28.1250   13.9250   21.3830 O.2   322  THR322     -0.2714
     80  CB       -27.3190   16.9060   21.4980 C.3   322  THR322      0.1808
     81  OG1      -26.5140   18.0850   21.4410 O.3   322  THR322     -0.2208
     82  CG2      -28.0420   16.8530   22.8580 C.3   322  THR322      0.0379
     83  N        -27.2720   14.4320   19.3570 N.am  323  GLU323     -0.1976
     84  CA       -27.9520   13.3690   18.6270 C.3   323  GLU323      0.1602
     85  C        -27.5590   11.9920   19.1880 C.2   323  GLU323      0.2287
     86  O        -28.3870   11.2930   19.7760 O.2   323  GLU323     -0.2864
     87  CB       -27.5880   13.4570   17.1370 C.3   323  GLU323      0.0415
     88  CG       -28.4670   14.3770   16.3250 C.3   323  GLU323      0.1163
     89  CD       -29.8350   13.7600   16.0270 C.2   323  GLU323      0.3649
     90  OE1      -30.0790   13.4090   14.8410 O.co2 323  GLU323     -0.2457
     91  OE2      -30.6520   13.6120   16.9800 O.co2 323  GLU323     -0.2457
@<TRIPOS>BOND
     1    15    14   ar
     2    16    14   ar
     3    14    13    1
     4    13    12    1
     5    12     9    1
     6    20    19    2
     7     9    10    1
     8     9     8    1
     9    11    10    2
    10    10    17   am
    11     8     3   am
    12    19    18    1
    13    26    25    1
    14    17    18    1
    15    25    27    1
    16    25    22    1
    17     3     4    2
    18     3     2    1
    19     2     1    1
    20     2     5    1
    21    22    21    1
    22    22    23    1
    23    42    40   am
    24    41    40    2
    25    40    39    1
    26     5     7    1
    27     5     6    1
    28    23    24    2
    29    39    36    1
    30    36    35    1
    31    36    37    1
    32    35    30   am
    33    28    29    1
    34    28    34    1
    35    90    89   ar
    36    30    29    1
    37    30    31    2
    38    29    32    1
    39    37    38    2
    40    34    33    1
    41    89    88    1
    42    89    91   ar
    43    88    87    1
    44    32    33    1
    45    63    62    1
    46    87    84    1
    47    62    60   ar
    48    62    61   ar
    49    60    58   ar
    50    55    54    2
    51    67    66    2
    52    61    59   ar
    53    84    85    1
    54    84    83    1
    55    58    57   ar
    56    85    86    2
    57    83    78   am
    58    66    72   am
    59    66    65    1
    60    73    72    1
    61    73    74    1
    62    59    57   ar
    63    54    53    1
    64    54    64   am
    65    57    56    1
    66    46    45    2
    67    65    64    1
    68    65    68    1
    69    74    76   am
    70    74    75    2
    71    53    56    1
    72    53    52    1
    73    76    77    1
    74    78    77    1
    75    78    79    2
    76    71    69    1
    77    45    52   am
    78    45    44    1
    79    68    69    1
    80    77    80    1
    81    81    80    1
    82    80    82    1
    83    69    70    1
    84    44    47    1
    85    44    43    1
    86    47    48    1
    87    48    49    1
    88    51    49   ar
    89    49    50   ar
