@<TRIPOS>MOLECULE
tmp/3cfnB00.pdb
 75 71 0 0 0
SMALL
GASTEIGER

@<TRIPOS>ATOM
      1  N        -22.9810    8.0550  -29.0780 N.3     6  LYS6       -0.1231
      2  CA       -23.9340    6.9430  -29.1780 C.3     6  LYS6        0.1693
      3  C        -24.6340    6.7620  -27.8390 C.2     6  LYS6        0.2592
      4  O        -23.9840    6.7620  -26.7910 O.2     6  LYS6       -0.2718
      5  CB       -23.2190    5.6450  -29.5680 C.3     6  LYS6        0.0285
      6  CG       -22.5810    5.6650  -30.9500 C.3     6  LYS6        0.0035
      7  CD       -21.6770    4.4530  -31.1850 C.3     6  LYS6        0.0206
      8  CE       -22.4670    3.1810  -31.4470 C.3     6  LYS6        0.1093
      9  NZ       -21.5700    2.0920  -31.9310 N.3     6  LYS6       -0.1314
     10  N        -25.9570    6.6130  -27.8640 N.am    7  VAL7       -0.1966
     11  CA       -26.7310    6.5560  -26.6250 C.3     7  VAL7        0.1727
     12  C        -27.6790    5.3550  -26.6120 C.2     7  VAL7        0.2616
     13  O        -28.4580    5.1580  -27.5480 O.2     7  VAL7       -0.2715
     14  CB       -27.5130    7.8720  -26.3660 C.3     7  VAL7        0.0290
     15  CG1      -28.1050    7.8740  -24.9760 C.3     7  VAL7        0.0023
     16  CG2      -26.6030    9.1010  -26.5410 C.3     7  VAL7        0.0023
     17  N        -27.6000    4.5680  -25.5400 N.am    8  LEU8       -0.1977
     18  CA       -28.3530    3.3220  -25.4040 C.3     8  LEU8        0.1596
     19  C        -29.3110    3.3910  -24.2160 C.2     8  LEU8        0.2287
     20  O        -28.9590    3.8920  -23.1510 O.2     8  LEU8       -0.2864
     21  CB       -27.3740    2.1500  -25.2410 C.3     8  LEU8        0.0297
     22  CG       -27.7730    0.6750  -25.0800 C.3     8  LEU8        0.0022
     23  CD1      -28.9710    0.2810  -25.9230 C.3     8  LEU8        0.0001
     24  CD2      -26.5840   -0.2000  -25.4400 C.3     8  LEU8        0.0001
     25  N        -31.6500    1.5530  -28.9520 N.3    15  PRO15      -0.2116
     26  CA       -31.0330    2.8690  -29.0770 C.3    15  PRO15       0.1372
     27  C        -31.9140    3.9380  -28.4310 C.2    15  PRO15       0.2244
     28  O        -33.1490    3.8410  -28.4720 O.2    15  PRO15      -0.2868
     29  CB       -30.9520    3.0810  -30.5960 C.3    15  PRO15       0.0268
     30  CG       -31.8720    2.0670  -31.1990 C.3    15  PRO15       0.0207
     31  CD       -31.8550    0.9100  -30.2620 C.3    15  PRO15       0.0892
     32  N        -30.8480    5.1770  -34.8220 N.3    43  SER43      -0.1202
     33  CA       -29.8460    4.1900  -34.4010 C.3    43  SER43       0.2020
     34  C        -29.1730    4.5560  -33.0720 C.2    43  SER43       0.2619
     35  O        -28.3060    3.8190  -32.5790 O.2    43  SER43      -0.2717
     36  CB       -28.7890    4.0000  -35.4920 C.3    43  SER43       0.2103
     37  OG       -28.0780    5.2060  -35.7240 O.3    43  SER43      -0.2182
     38  N        -29.5850    5.6820  -32.4910 N.am   44  GLY44      -0.1942
     39  CA       -29.0120    6.1760  -31.2350 C.3    44  GLY44       0.2014
     40  C        -27.6710    6.8630  -31.4110 C.2    44  GLY44       0.2638
     41  O        -26.9610    7.1150  -30.4330 O.2    44  GLY44      -0.2714
     42  N        -27.3320    7.1860  -32.6550 N.am   45  GLU45      -0.1977
     43  CA       -26.0220    7.7520  -32.9750 C.3    45  GLU45       0.1602
     44  C        -26.1220    9.2070  -33.4180 C.2    45  GLU45       0.2287
     45  O        -27.1160    9.6210  -34.0150 O.2    45  GLU45      -0.2864
     46  CB       -25.3300    6.9260  -34.0610 C.3    45  GLU45       0.0415
     47  CG       -25.0120    5.4830  -33.6700 C.3    45  GLU45       0.1163
     48  CD       -24.4360    4.6630  -34.8230 C.2    45  GLU45       0.3649
     49  OE1      -24.2560    5.2120  -35.9330 O.co2  45  GLU45      -0.2457
     50  OE2      -24.1680    3.4600  -34.6220 O.co2  45  GLU45      -0.2457
     51  N        -19.8080    6.7980  -25.8600 N.3    99  ALA99      -0.1231
     52  CA       -21.0570    6.0750  -25.6910 C.3    99  ALA99       0.1694
     53  C        -21.6090    6.2750  -24.2820 C.2    99  ALA99       0.2592
     54  O        -20.8490    6.3850  -23.3170 O.2    99  ALA99      -0.2718
     55  CB       -20.8740    4.6010  -26.0090 C.3    99  ALA99       0.0304
     56  N        -22.9320    6.3530  -24.1840 N.am  100  ALA100     -0.1966
     57  CA       -23.6160    6.4520  -22.9010 C.3   100  ALA100      0.1728
     58  C        -24.7050    5.3940  -22.7850 C.2   100  ALA100      0.2616
     59  O        -25.5510    5.2550  -23.6810 O.2   100  ALA100     -0.2715
     60  CB       -24.2030    7.8410  -22.7090 C.3   100  ALA100      0.0334
     61  N        -24.6610    4.6490  -21.6860 N.am  101  LEU101     -0.1977
     62  CA       -25.6520    3.6300  -21.3730 C.3   101  LEU101      0.1596
     63  C        -26.5580    4.1750  -20.2770 C.2   101  LEU101      0.2287
     64  O        -26.1070    4.4140  -19.1610 O.2   101  LEU101     -0.2864
     65  CB       -24.9540    2.3470  -20.9100 C.3   101  LEU101      0.0297
     66  CG       -25.8070    1.1910  -20.3870 C.3   101  LEU101      0.0022
     67  CD1      -26.6270    0.5620  -21.5090 C.3   101  LEU101      0.0001
     68  CD2      -24.9230    0.1580  -19.7140 C.3   101  LEU101      0.0001
     69  N        -18.4450    5.4220  -21.9250 N.3   110  THR110     -0.1218
     70  CA       -17.2220    4.8230  -22.4490 C.3   110  THR110      0.1862
     71  C        -16.6470    5.7050  -23.5440 C.2   110  THR110      0.2287
     72  O        -17.3740    6.4700  -24.1810 O.2   110  THR110     -0.2866
     73  CB       -17.5060    3.4410  -23.0810 C.3   110  THR110      0.1770
     74  OG1      -18.4070    3.6000  -24.1870 O.3   110  THR110     -0.2211
     75  CG2      -18.1340    2.5080  -22.0750 C.3   110  THR110      0.0375
@<TRIPOS>BOND
     1    49    48   ar
     2    37    36    1
     3    36    33    1
     4    48    50   ar
     5    48    47    1
     6    32    33    1
     7    33    34    1
     8    46    47    1
     9    46    43    1
    10    45    44    2
    11    44    43    1
    12    34    35    2
    13    34    38   am
    14    43    42    1
    15    42    40   am
    16    38    39    1
    17     9     8    1
    18     8     7    1
    19    40    39    1
    20    40    41    2
    21    30    29    1
    22    30    31    1
    23     7     6    1
    24     6     5    1
    25    29    26    1
    26    31    25    1
    27     5     2    1
    28     2     1    1
    29     2     3    1
    30    26    25    1
    31    26    27    1
    32    28    27    2
    33    10     3   am
    34    10    11    1
    35     3     4    2
    36    13    12    2
    37    11    12    1
    38    11    14    1
    39    12    17   am
    40    16    14    1
    41    14    15    1
    42    55    52    1
    43    23    22    1
    44    51    52    1
    45    52    53    1
    46    17    18    1
    47    24    22    1
    48    18    21    1
    49    18    19    1
    50    21    22    1
    51    53    56   am
    52    53    54    2
    53    19    20    2
    54    74    73    1
    55    56    57    1
    56    72    71    2
    57    59    58    2
    58    71    70    1
    59    73    70    1
    60    73    75    1
    61    57    58    1
    62    57    60    1
    63    58    61   am
    64    70    69    1
    65    61    62    1
    66    67    66    1
    67    62    65    1
    68    62    63    1
    69    65    66    1
    70    66    68    1
    71    63    64    2
