@<TRIPOS>MOLECULE
tmp/3cfoA00.pdb
 129 122 0 0 0
SMALL
GASTEIGER

@<TRIPOS>ATOM
      1  N         10.1410   14.1090   68.0320 N.3    33  TYR33      -0.1241
      2  CA         9.6770   13.4330   66.8300 C.3    33  TYR33       0.1605
      3  C          9.6720   11.9210   66.9770 C.2    33  TYR33       0.2264
      4  O         10.5600   11.3300   67.6010 O.2    33  TYR33      -0.2867
      5  CB        10.5520   13.8620   65.6480 C.3    33  TYR33       0.0534
      6  CG        10.1960   13.2690   64.3070 C.ar   33  TYR33      -0.0201
      7  CD1        8.9240   13.4330   63.7600 C.ar   33  TYR33      -0.0009
      8  CD2       11.1560   12.5740   63.5620 C.ar   33  TYR33      -0.0009
      9  CE1        8.6000   12.8980   62.5130 C.ar   33  TYR33       0.0417
     10  CE2       10.8550   12.0410   62.3090 C.ar   33  TYR33       0.0417
     11  CZ         9.5700   12.2020   61.7900 C.ar   33  TYR33       0.1957
     12  OH         9.2590   11.6650   60.5520 O.3    33  TYR33      -0.2866
     13  N          9.2520    6.7560   61.6740 N.3    36  SER36      -0.1217
     14  CA         8.8180    5.4610   61.1920 C.3    36  SER36       0.1889
     15  C          9.8950    4.8490   60.3300 C.2    36  SER36       0.2288
     16  O         10.5290    5.5310   59.5250 O.2    36  SER36      -0.2866
     17  CB         7.5380    5.5750   60.3880 C.3    36  SER36       0.2089
     18  OG         6.4840    5.9580   61.2290 O.3    36  SER36      -0.2183
     19  N         10.8820    0.7320   58.3680 N.3    38  PHE38      -0.1241
     20  CA        10.2160   -0.4150   57.7620 C.3    38  PHE38       0.1605
     21  C         11.0320   -1.7010   57.7760 C.2    38  PHE38       0.2264
     22  O         12.2670   -1.6770   57.7200 O.2    38  PHE38      -0.2867
     23  CB         9.7800   -0.0780   56.3330 C.3    38  PHE38       0.0534
     24  CG         8.8130    1.0660   56.2540 C.ar   38  PHE38      -0.0203
     25  CD1        7.4450    0.8290   56.2090 C.ar   38  PHE38      -0.0042
     26  CD2        9.2700    2.3880   56.2410 C.ar   38  PHE38      -0.0042
     27  CE1        6.5370    1.8810   56.1410 C.ar   38  PHE38      -0.0003
     28  CE2        8.3750    3.4430   56.1860 C.ar   38  PHE38      -0.0003
     29  CZ         6.9970    3.1910   56.1360 C.ar   38  PHE38      -0.0000
     30  N          2.3600   -0.6620   51.7380 N.3    49  TYR49      -0.1241
     31  CA         3.7890   -0.3370   51.6000 C.3    49  TYR49       0.1605
     32  C          4.6340   -1.4100   50.8990 C.2    49  TYR49       0.2264
     33  O          4.7180   -2.5540   51.3600 O.2    49  TYR49      -0.2867
     34  CB         4.4040   -0.0610   52.9760 C.3    49  TYR49       0.0534
     35  CG         3.7640    1.0580   53.7760 C.ar   49  TYR49      -0.0201
     36  CD1        3.0490    0.7820   54.9450 C.ar   49  TYR49      -0.0009
     37  CD2        3.8950    2.3980   53.3830 C.ar   49  TYR49      -0.0009
     38  CE1        2.4690    1.8090   55.6980 C.ar   49  TYR49       0.0417
     39  CE2        3.3110    3.4360   54.1290 C.ar   49  TYR49       0.0417
     40  CZ         2.6020    3.1320   55.2860 C.ar   49  TYR49       0.1957
     41  OH         2.0300    4.1430   56.0300 O.3    49  TYR49      -0.2866
     42  N          5.2240   -1.0850   58.6570 N.3    59  ARG59      -0.1245
     43  CA         5.7200    0.1220   59.3090 C.3    59  ARG59       0.1563
     44  C          5.9540   -0.0990   60.7920 C.2    59  ARG59       0.2260
     45  O          5.0900   -0.6270   61.4820 O.2    59  ARG59      -0.2867
     46  CB         4.7220    1.2600   59.1280 C.3    59  ARG59       0.0307
     47  CG         5.3330    2.6170   59.3140 C.3    59  ARG59       0.0489
     48  CD         4.3340    3.7120   59.0350 C.3    59  ARG59       0.2205
     49  NE         4.1080    4.5300   60.2210 N.pl3  59  ARG59      -0.0865
     50  CZ         2.9520    4.6370   60.8620 C.cat  59  ARG59       0.5346
     51  NH1        1.8770    3.9890   60.4360 N.pl3  59  ARG59       0.1354
     52  NH2        2.8710    5.4130   61.9290 N.pl3  59  ARG59       0.1354
     53  N         13.7440    2.4350   55.0120 N.3    84  GLY84      -0.1210
     54  CA        13.1840    3.7380   55.3620 C.3    84  GLY84       0.1956
     55  C         14.2040    4.8340   55.6070 C.2    84  GLY84       0.2611
     56  O         15.4110    4.6000   55.5500 O.2    84  GLY84      -0.2717
     57  N         13.7080    6.0370   55.8860 N.am   85  MET85      -0.1979
     58  CA        14.5450    7.2290   56.0010 C.3    85  MET85       0.1605
     59  C         15.2320    7.3080   57.3620 C.2    85  MET85       0.2287
     60  O         14.6570    7.7700   58.3540 O.2    85  MET85      -0.2864
     61  CB        13.7280    8.4960   55.6940 C.3    85  MET85       0.0413
     62  CG        14.5080    9.8140   55.7860 C.3    85  MET85       0.0598
     63  SD        16.1800    9.7950   55.0770 S.3    85  MET85      -0.1393
     64  CE        15.8500    9.8340   53.3090 C.3    85  MET85       0.0692
     65  N         13.0110   13.0410   57.3940 N.3    91  ALA91      -0.1245
     66  CA        11.7080   12.4550   57.6650 C.3    91  ALA91       0.1562
     67  C         10.8160   13.4980   58.3180 C.2    91  ALA91       0.2260
     68  O          9.6560   13.6580   57.9320 O.2    91  ALA91      -0.2867
     69  CB        11.8460   11.2220   58.5540 C.3    91  ALA91       0.0290
     70  N          7.3150   15.1180   56.7330 N.3    95  ASP95      -0.1239
     71  CA         6.0310   15.0120   57.4310 C.3    95  ASP95       0.1674
     72  C          5.4300   16.3680   57.7340 C.2    95  ASP95       0.2266
     73  O          4.2200   16.5500   57.5800 O.2    95  ASP95      -0.2867
     74  CB         6.1610   14.2220   58.7380 C.3    95  ASP95       0.1410
     75  CG         6.6300   12.8070   58.5190 C.2    95  ASP95       0.3668
     76  OD1        6.7210   12.3740   57.3440 O.co2  95  ASP95      -0.2456
     77  OD2        6.9230   12.1340   59.5280 O.co2  95  ASP95      -0.2456
     78  N         13.1960   10.1080   48.2110 N.3   370  PHE370     -0.1241
     79  CA        12.4420    9.6810   49.3880 C.3   370  PHE370      0.1605
     80  C         11.0240   10.2560   49.3680 C.2   370  PHE370      0.2264
     81  O         10.0490    9.5150   49.5260 O.2   370  PHE370     -0.2867
     82  CB        13.1860   10.0340   50.6850 C.3   370  PHE370      0.0534
     83  CG        12.3050   10.1530   51.8860 C.ar  370  PHE370     -0.0203
     84  CD1       12.1710   11.3760   52.5350 C.ar  370  PHE370     -0.0042
     85  CD2       11.5980    9.0420   52.3790 C.ar  370  PHE370     -0.0042
     86  CE1       11.3330   11.5040   53.6640 C.ar  370  PHE370     -0.0003
     87  CE2       10.7580    9.1540   53.4980 C.ar  370  PHE370     -0.0003
     88  CZ        10.6250   10.3860   54.1440 C.ar  370  PHE370     -0.0000
     89  N          7.4790    8.3270   48.7390 N.3   374  LYS374     -0.1245
     90  CA         6.5630    8.4050   49.8820 C.3   374  LYS374      0.1561
     91  C          5.1190    8.6610   49.4390 C.2   374  LYS374      0.2260
     92  O          4.1920    8.0600   49.9820 O.2   374  LYS374     -0.2867
     93  CB         7.0170    9.4640   50.8790 C.3   374  LYS374      0.0271
     94  CG         6.2500    9.5090   52.1900 C.3   374  LYS374      0.0035
     95  CD         6.5330   10.8340   52.9080 C.3   374  LYS374      0.0206
     96  CE         5.4620   11.1780   53.9330 C.3   374  LYS374      0.1093
     97  NZ         5.5880   12.5840   54.4190 N.3   374  LYS374     -0.1314
     98  N          3.4990    5.4110   48.5640 N.3   377  ASN377     -0.1225
     99  CA         3.5710    4.3710   49.5950 C.3   377  ASN377      0.1785
    100  C          4.7280    3.3860   49.4100 C.2   377  ASN377      0.2597
    101  O          4.7550    2.3240   50.0360 O.2   377  ASN377     -0.2718
    102  CB         2.2360    3.6240   49.7210 C.3   377  ASN377      0.1169
    103  CG         1.1590    4.4670   50.3560 C.2   377  ASN377      0.2627
    104  OD1        1.4460    5.3440   51.1710 O.2   377  ASN377     -0.2716
    105  ND2       -0.0930    4.2060   49.9930 N.am  377  ASN377     -0.0877
    106  N          5.6790    3.7480   48.5520 N.am  378  LYS378     -0.1966
    107  CA         6.8940    2.9660   48.3670 C.3   378  LYS378      0.1728
    108  C          7.8990    3.2740   49.4750 C.2   378  LYS378      0.2616
    109  O          7.9000    4.3700   50.0510 O.2   378  LYS378     -0.2715
    110  CB         7.5060    3.2120   46.9900 C.3   378  LYS378      0.0311
    111  CG         6.5700    2.8980   45.8390 C.3   378  LYS378      0.0038
    112  CD         7.3120    2.1610   44.7500 C.3   378  LYS378      0.0206
    113  CE         6.3940    1.6870   43.6280 C.3   378  LYS378      0.1093
    114  NZ         6.3020    2.7490   42.5880 N.3   378  LYS378     -0.1314
    115  N          8.7400    2.2880   49.7730 N.am  379  VAL379     -0.1963
    116  CA         9.6780    2.3480   50.8950 C.3   379  VAL379      0.1727
    117  C         11.0990    2.3110   50.3470 C.2   379  VAL379      0.2616
    118  O         11.4090    1.4920   49.4880 O.2   379  VAL379     -0.2715
    119  CB         9.4430    1.1660   51.8860 C.3   379  VAL379      0.0290
    120  CG1       10.4740    1.1690   52.9960 C.3   379  VAL379      0.0023
    121  CG2        8.0380    1.2290   52.4810 C.3   379  VAL379      0.0023
    122  N         11.9550    3.2010   50.8370 N.am  380  ILE380     -0.1977
    123  CA        13.3180    3.3070   50.3180 C.3   380  ILE380      0.1596
    124  C         14.2130    2.2410   50.9300 C.2   380  ILE380      0.2287
    125  O         14.0150    1.8530   52.0880 O.2   380  ILE380     -0.2864
    126  CB        13.9290    4.7210   50.5120 C.3   380  ILE380      0.0276
    127  CG1       14.1340    5.0440   51.9990 C.3   380  ILE380      0.0022
    128  CG2       13.0620    5.7550   49.8260 C.3   380  ILE380      0.0022
    129  CD1       14.8830    6.3380   52.2730 C.3   380  ILE380      0.0001
@<TRIPOS>BOND
     1   114   113    1
     2   113   112    1
     3   112   111    1
     4   111   110    1
     5   110   107    1
     6    78    79    1
     7   107   106    1
     8   107   108    1
     9   106   100   am
    10    98    99    1
    11    89    90    1
    12    80    79    1
    13    80    81    2
    14    79    82    1
    15   100    99    1
    16   100   101    2
    17    91    90    1
    18    91    92    2
    19   108   115   am
    20   108   109    2
    21   118   117    2
    22    99   102    1
    23   102   103    1
    24   115   116    1
    25   128   126    1
    26    90    93    1
    27   105   103   am
    28   123   126    1
    29   123   122    1
    30   123   124    1
    31   117   122   am
    32   117   116    1
    33   103   104    2
    34   126   127    1
    35    82    83    1
    36    93    94    1
    37   116   119    1
    38    32    33    2
    39    32    31    1
    40   124   125    2
    41    31    30    1
    42    31    34    1
    43   119   121    1
    44   119   120    1
    45    83    85   ar
    46    83    84   ar
    47   127   129    1
    48    94    95    1
    49    85    87   ar
    50    84    86   ar
    51    95    96    1
    52    34    35    1
    53    64    63    1
    54    37    35   ar
    55    37    39   ar
    56    87    88   ar
    57    86    88   ar
    58    35    36   ar
    59    96    97    1
    60    39    40   ar
    61    36    38   ar
    62    53    54    1
    63    63    62    1
    64    40    38   ar
    65    40    41    1
    66    54    55    1
    67    56    55    2
    68    55    57   am
    69    61    62    1
    70    61    58    1
    71    57    58    1
    72    58    59    1
    73    29    27   ar
    74    29    28   ar
    75    27    25   ar
    76    28    26   ar
    77    25    24   ar
    78    26    24   ar
    79    24    23    1
    80    23    20    1
    81    70    71    1
    82    76    75   ar
    83    59    60    2
    84    65    66    1
    85    71    72    1
    86    71    74    1
    87    73    72    2
    88    66    67    1
    89    66    69    1
    90    22    21    2
    91    20    21    1
    92    20    19    1
    93    68    67    2
    94    75    74    1
    95    75    77   ar
    96    42    43    1
    97    48    47    1
    98    48    49    1
    99    46    43    1
   100    46    47    1
   101    43    44    1
   102    16    15    2
   103    49    50    2
   104    15    14    1
   105    17    14    1
   106    17    18    1
   107    51    50    1
   108    12    11    1
   109    44    45    2
   110    50    52    1
   111    14    13    1
   112    11    10   ar
   113    11     9   ar
   114    10     8   ar
   115     9     7   ar
   116     8     6   ar
   117     7     6   ar
   118     6     5    1
   119     5     2    1
   120     2     3    1
   121     2     1    1
   122     3     4    2
