@<TRIPOS>MOLECULE
tmp/3cg5A00.pdb
 88 80 0 0 0
SMALL
GASTEIGER

@<TRIPOS>ATOM
      1  N        -17.7410  -12.4320    4.0350 N.3    41  CYS41      -0.1221
      2  CA       -16.2810  -12.3600    4.0920 C.3    41  CYS41       0.1808
      3  C        -15.8610  -11.8880    5.4850 C.2    41  CYS41       0.2601
      4  O        -16.3780  -12.3870    6.5200 O.2    41  CYS41      -0.2717
      5  CB       -15.7200  -11.4640    2.9910 C.3    41  CYS41       0.0970
      6  SG       -16.1920  -12.1090    1.3290 S.3    41  CYS41      -0.0800
      7  N        -14.9930  -10.9710    5.6600 N.am   42  SER42      -0.1952
      8  CA       -14.3760  -10.7100    6.9690 C.3    42  SER42       0.1924
      9  C        -15.3580   -9.8650    7.7820 C.2    42  SER42       0.2314
     10  O        -15.0810   -9.4920    8.9210 O.2    42  SER42      -0.2863
     11  CB       -13.0620   -9.9460    6.8000 C.3    42  SER42       0.2116
     12  OG       -11.9820  -10.8770    6.6460 O.3    42  SER42      -0.2180
     13  N        -16.2650  -10.7000   11.3900 N.3    45  LYS45      -0.1245
     14  CA       -15.3030  -10.5830   12.4910 C.3    45  LYS45       0.1561
     15  C        -15.7030   -9.5260   13.5150 C.2    45  LYS45       0.2260
     16  O        -15.3280   -9.6290   14.6810 O.2    45  LYS45      -0.2867
     17  CB       -13.8970  -10.3380   11.9290 C.3    45  LYS45       0.0271
     18  CG       -13.4220  -11.5590   11.1500 C.3    45  LYS45       0.0035
     19  CD       -12.1190  -11.3590   10.3830 C.3    45  LYS45       0.0206
     20  CE       -11.9030  -12.5850    9.5450 C.3    45  LYS45       0.1093
     21  NZ       -10.7420  -12.4840    8.6710 N.3    45  LYS45      -0.1314
     22  N         -4.7620  -18.8790    6.3390 N.3    74  SER74      -0.1202
     23  CA        -5.4290  -17.7330    5.7150 C.3    74  SER74       0.2020
     24  C         -4.6200  -16.4750    6.0260 C.2    74  SER74       0.2618
     25  O         -3.7480  -16.5190    6.8770 O.2    74  SER74      -0.2717
     26  CB        -6.8590  -17.6000    6.2540 C.3    74  SER74       0.2103
     27  OG        -6.8800  -17.3730    7.6670 O.3    74  SER74      -0.2182
     28  N         -4.9150  -15.3710    5.3340 N.am   75  ILE75      -0.1979
     29  CA        -4.2600  -14.0640    5.5650 C.3    75  ILE75       0.1595
     30  C         -4.3610  -13.7460    7.0450 C.2    75  ILE75       0.2287
     31  O         -5.4780  -13.6220    7.5880 O.2    75  ILE75      -0.2864
     32  CB        -4.9110  -12.9260    4.6990 C.3    75  ILE75       0.0276
     33  CG1       -4.5940  -13.1340    3.2110 C.3    75  ILE75       0.0022
     34  CG2       -4.4360  -11.5460    5.1180 C.3    75  ILE75       0.0022
     35  CD1       -5.5890  -12.4400    2.2560 C.3    75  ILE75       0.0001
     36  N         -8.0520   -7.6650    9.9880 N.3   100  SER100     -0.1217
     37  CA        -8.9140   -8.6620    9.3860 C.3   100  SER100      0.1889
     38  C         -8.2590  -10.0550    9.4150 C.2   100  SER100      0.2288
     39  O         -8.4080  -10.8530    8.4920 O.2   100  SER100     -0.2866
     40  CB        -9.2210   -8.2310    7.9570 C.3   100  SER100      0.2089
     41  OG       -10.0190   -9.1880    7.3800 O.3   100  SER100     -0.2183
     42  N         -7.2540  -13.7380    9.7700 N.3   102  GLY102     -0.1225
     43  CA        -8.0420  -14.9430    9.5750 C.3   102  GLY102      0.1811
     44  C         -7.8470  -15.9850   10.6640 C.2   102  GLY102      0.2280
     45  O         -8.8050  -16.6130   11.1470 O.2   102  GLY102     -0.2866
     46  N        -12.2980  -19.4900    8.1940 N.3   140  GLU140     -0.1245
     47  CA       -11.2330  -19.1760    7.2260 C.3   140  GLU140      0.1567
     48  C        -10.3850  -20.4140    6.8590 C.2   140  GLU140      0.2260
     49  O        -10.1000  -21.2150    7.7500 O.2   140  GLU140     -0.2867
     50  CB       -10.2880  -18.1390    7.8350 C.3   140  GLU140      0.0388
     51  CG       -10.9250  -16.8010    8.1340 C.3   140  GLU140      0.1160
     52  CD       -10.8700  -15.8490    6.9440 C.2   140  GLU140      0.3649
     53  OE1      -10.6960  -16.3060    5.7990 O.co2 140  GLU140     -0.2457
     54  OE2      -10.9990  -14.6370    7.1600 O.co2 140  GLU140     -0.2457
     55  N        -14.9860  -17.3630    2.3930 N.3   144  ASN144     -0.1240
     56  CA       -14.9040  -16.3680    1.3050 C.3   144  ASN144      0.1653
     57  C        -15.0970  -16.9280   -0.1100 C.2   144  ASN144      0.2266
     58  O        -15.0400  -16.1720   -1.0990 O.2   144  ASN144     -0.2867
     59  CB       -13.5350  -15.6820    1.3790 C.3   144  ASN144      0.1155
     60  CG       -13.2630  -15.1120    2.7600 C.2   144  ASN144      0.2627
     61  OD1      -14.1200  -14.4180    3.3330 O.2   144  ASN144     -0.2716
     62  ND2      -12.1000  -15.4360    3.3200 N.am  144  ASN144     -0.0877
     63  N        -13.2960   -8.9950    2.1670 N.3   211  THR211     -0.1203
     64  CA       -12.8590   -9.2260    0.7810 C.3   211  THR211      0.1994
     65  C        -12.9200  -10.7450    0.5150 C.2   211  THR211      0.2618
     66  O        -12.7200  -11.5440    1.4100 O.2   211  THR211     -0.2717
     67  CB       -11.4380   -8.6460    0.5590 C.3   211  THR211      0.1784
     68  OG1      -11.4220   -7.2570    0.9630 O.3   211  THR211     -0.2211
     69  CG2      -10.9860   -8.7720   -0.8890 C.3   211  THR211      0.0376
     70  N        -13.2330  -11.1370   -0.7070 N.am  212  GLY212     -0.1942
     71  CA       -13.4100  -12.5580   -1.0050 C.3   212  GLY212      0.2014
     72  C        -13.2310  -12.8350   -2.4810 C.2   212  GLY212      0.2638
     73  O        -12.8650  -11.9350   -3.2720 O.2   212  GLY212     -0.2714
     74  N        -13.4740  -14.0890   -2.8610 N.am  213  ASP213     -0.1971
     75  CA       -13.2950  -14.4960   -4.2450 C.3   213  ASP213      0.1709
     76  C        -14.4830  -13.9870   -5.0260 C.2   213  ASP213      0.2293
     77  O        -15.3630  -13.3610   -4.4290 O.2   213  ASP213     -0.2864
     78  CB       -13.1200  -16.0010   -4.3100 C.3   213  ASP213      0.1436
     79  CG       -11.9220  -16.4340   -3.5110 C.2   213  ASP213      0.3671
     80  OD1      -10.8040  -16.0800   -3.9470 O.co2 213  ASP213     -0.2456
     81  OD2      -12.1080  -17.0340   -2.4370 O.co2 213  ASP213     -0.2456
     82  N        -11.4640   -7.8220   -6.5100 N.3   248  PRO248     -0.2116
     83  CA       -12.3440   -6.9750   -5.6950 C.3   248  PRO248      0.1372
     84  C        -12.0030   -5.5470   -6.0750 C.2   248  PRO248      0.2244
     85  O        -10.8270   -5.2600   -6.3450 O.2   248  PRO248     -0.2868
     86  CB       -11.8600   -7.2310   -4.2530 C.3   248  PRO248      0.0268
     87  CG       -11.1180   -8.5030   -4.3120 C.3   248  PRO248      0.0207
     88  CD       -10.4590   -8.5100   -5.6860 C.3   248  PRO248      0.0892
@<TRIPOS>BOND
     1    82    83    1
     2    82    88    1
     3    85    84    2
     4    84    83    1
     5    83    86    1
     6    88    87    1
     7    76    77    2
     8    76    75    1
     9    87    86    1
    10    78    75    1
    11    78    79    1
    12    75    74    1
    13    80    79   ar
    14    79    81   ar
    15    73    72    2
    16    74    72   am
    17    72    71    1
    18    58    57    2
    19    71    70    1
    20    69    67    1
    21    70    65   am
    22    57    56    1
    23    65    64    1
    24    65    66    2
    25    67    64    1
    26    67    68    1
    27    64    63    1
    28    56    59    1
    29    56    55    1
    30     6     5    1
    31    59    60    1
    32    35    33    1
    33    60    62   am
    34    60    61    2
    35     5     2    1
    36    33    32    1
    37     1     2    1
    38     2     3    1
    39    32    34    1
    40    32    29    1
    41    28    29    1
    42    28    24   am
    43     3     7   am
    44     3     4    2
    45    29    30    1
    46     7     8    1
    47    23    24    1
    48    23    26    1
    49    23    22    1
    50    53    52   ar
    51    24    25    2
    52    26    27    1
    53    12    11    1
    54    11     8    1
    55    48    47    1
    56    48    49    2
    57    52    54   ar
    58    52    51    1
    59     8     9    1
    60    30    31    2
    61    47    50    1
    62    47    46    1
    63    41    40    1
    64     9    10    2
    65    50    51    1
    66    40    37    1
    67    39    38    2
    68    21    20    1
    69    37    38    1
    70    37    36    1
    71    20    19    1
    72    43    42    1
    73    43    44    1
    74    19    18    1
    75    44    45    2
    76    18    17    1
    77    13    14    1
    78    17    14    1
    79    14    15    1
    80    15    16    2
