@<TRIPOS>MOLECULE
tmp/3cg8C01.pdb
 86 82 0 0 0
SMALL
GASTEIGER

@<TRIPOS>ATOM
      1  N         37.2430   93.2590  -23.9490 N.3    14  LEU14      -0.1245
      2  CA        36.1420   94.1810  -24.2640 C.3    14  LEU14       0.1561
      3  C         36.3080   95.4660  -23.4610 C.2    14  LEU14       0.2260
      4  O         36.8800   95.4460  -22.3710 O.2    14  LEU14      -0.2867
      5  CB        34.7790   93.5230  -24.0020 C.3    14  LEU14       0.0270
      6  CG        34.5540   92.1660  -24.6900 C.3    14  LEU14       0.0019
      7  CD1       33.2400   91.5170  -24.2780 C.3    14  LEU14       0.0001
      8  CD2       34.6370   92.2650  -26.2030 C.3    14  LEU14       0.0001
      9  N         34.6640   97.3110  -21.4710 N.3    16  ASP16      -0.1239
     10  CA        34.2670   97.3060  -20.0270 C.3    16  ASP16       0.1674
     11  C         35.2010   96.5190  -19.0850 C.2    16  ASP16       0.2266
     12  O         35.0730   96.6400  -17.8740 O.2    16  ASP16      -0.2867
     13  CB        32.8440   96.7830  -19.8420 C.3    16  ASP16       0.1410
     14  CG        32.7030   95.3300  -20.2060 C.2    16  ASP16       0.3668
     15  OD1       33.6000   94.7640  -20.8580 O.co2  16  ASP16      -0.2456
     16  OD2       31.6700   94.7520  -19.8390 O.co2  16  ASP16      -0.2456
     17  N         35.6520   93.0500  -19.5850 N.3    18  GLN18      -0.1245
     18  CA        35.2930   91.6570  -19.8440 C.3    18  GLN18       0.1566
     19  C         36.0530   91.0940  -21.0190 C.2    18  GLN18       0.2260
     20  O         36.8110   91.8060  -21.6550 O.2    18  GLN18      -0.2867
     21  CB        33.7680   91.5460  -20.0660 C.3    18  GLN18       0.0367
     22  CG        33.0120   91.9590  -18.7870 C.3    18  GLN18       0.0905
     23  CD        31.5250   91.7380  -18.8410 C.2    18  GLN18       0.2608
     24  OE1       30.9340   91.2460  -17.8690 O.2    18  GLN18      -0.2717
     25  NE2       30.9060   92.0910  -19.9530 N.am   18  GLN18      -0.0878
     26  N         32.7600   89.5670  -30.4930 N.3    28  ALA28      -0.1231
     27  CA        32.8400   88.7290  -29.3140 C.3    28  ALA28       0.1694
     28  C         31.5470   88.9150  -28.5480 C.2    28  ALA28       0.2593
     29  O         31.0640   90.0240  -28.3880 O.2    28  ALA28      -0.2718
     30  CB        34.0290   89.1190  -28.4440 C.3    28  ALA28       0.0304
     31  N         30.9800   87.8060  -28.0900 N.am   29  SER29      -0.1938
     32  CA        29.8080   87.8210  -27.2180 C.3    29  SER29       0.2055
     33  C         30.1200   87.0640  -25.9260 C.2    29  SER29       0.2643
     34  O         31.0080   86.2180  -25.8800 O.2    29  SER29      -0.2714
     35  CB        28.6020   87.1910  -27.9330 C.3    29  SER29       0.2130
     36  OG        28.9250   85.9110  -28.4620 O.3    29  SER29      -0.2179
     37  N         29.3730   87.3920  -24.8920 N.am   30  VAL30      -0.1963
     38  CA        29.3440   86.6330  -23.6700 C.3    30  VAL30       0.1712
     39  C         27.8910   86.3090  -23.3930 C.2    30  VAL30       0.2458
     40  O         27.1350   87.1970  -23.0110 O.2    30  VAL30      -0.2730
     41  CB        29.8830   87.4610  -22.4920 C.3    30  VAL30       0.0289
     42  CG1       29.7550   86.6750  -21.1670 C.3    30  VAL30       0.0023
     43  CG2       31.3040   87.9150  -22.7810 C.3    30  VAL30       0.0023
     44  N         27.4970   85.0390  -23.4810 N.am   31  PRO31      -0.2727
     45  CA        28.2350   83.8270  -23.7910 C.3    31  PRO31       0.1402
     46  C         28.8350   83.9140  -25.1620 C.2    31  PRO31       0.2269
     47  O         28.3720   84.7010  -25.9760 O.2    31  PRO31      -0.2865
     48  CB        27.1530   82.7400  -23.8010 C.3    31  PRO31       0.0296
     49  CG        26.0530   83.2770  -23.0530 C.3    31  PRO31       0.0237
     50  CD        26.1000   84.7460  -23.1200 C.3    31  PRO31       0.0939
     51  N         24.6900   85.4300  -17.6580 N.3   157  ASN157     -0.1225
     52  CA        25.4170   85.8840  -18.8380 C.3   157  ASN157      0.1785
     53  C         26.2450   87.1530  -18.5980 C.2   157  ASN157      0.2597
     54  O         26.3570   88.0140  -19.4350 O.2   157  ASN157     -0.2718
     55  CB        24.4350   86.0140  -19.9850 C.3   157  ASN157      0.1169
     56  CG        23.8430   84.6760  -20.3630 C.2   157  ASN157      0.2627
     57  OD1       24.2320   83.6610  -19.7930 O.2   157  ASN157     -0.2716
     58  ND2       22.9260   84.6540  -21.3200 N.am  157  ASN157     -0.0877
     59  N         26.8240   87.2300  -17.4140 N.am  158  ASN158     -0.1960
     60  CA        27.6880   88.3110  -17.0120 C.3   158  ASN158      0.1819
     61  C         26.9920   89.6520  -16.9540 C.2   158  ASN158      0.2621
     62  O         27.6420   90.6770  -16.8010 O.2   158  ASN158     -0.2715
     63  CB        28.9360   88.3500  -17.8890 C.3   158  ASN158      0.1195
     64  CG        30.0730   87.5470  -17.3030 C.2   158  ASN158      0.2630
     65  OD1       29.9440   86.3560  -17.0270 O.2   158  ASN158     -0.2716
     66  ND2       31.2010   88.1990  -17.1230 N.am  158  ASN158     -0.0877
     67  N         25.6690   89.6400  -16.9710 N.am  159  ARG159     -0.1963
     68  CA        24.9100   90.8790  -16.9590 C.3   159  ARG159      0.1729
     69  C         24.7400   91.4450  -15.5940 C.2   159  ARG159      0.2616
     70  O         24.8280   90.7380  -14.6200 O.2   159  ARG159     -0.2715
     71  CB        23.5340   90.6720  -17.5670 C.3   159  ARG159      0.0348
     72  CG        23.6330   90.2980  -18.9980 C.3   159  ARG159      0.0492
     73  CD        22.3410   89.8340  -19.4750 C.3   159  ARG159      0.2205
     74  NE        21.5190   90.9930  -19.7880 N.pl3 159  ARG159     -0.0865
     75  CZ        21.1400   91.3410  -21.0090 C.cat 159  ARG159      0.5346
     76  NH1       21.4690   90.6100  -22.0770 N.pl3 159  ARG159      0.1354
     77  NH2       20.4000   92.4200  -21.1500 N.pl3 159  ARG159      0.1354
     78  N         24.4600   92.7360  -15.5480 N.am  160  LYS160     -0.1977
     79  CA        24.1180   93.4130  -14.2990 C.3   160  LYS160      0.1596
     80  C         22.8120   92.8730  -13.7000 C.2   160  LYS160      0.2287
     81  O         21.9160   92.4360  -14.4250 O.2   160  LYS160     -0.2864
     82  CB        23.9900   94.9360  -14.5260 C.3   160  LYS160      0.0298
     83  CG        25.3290   95.6440  -14.5940 C.3   160  LYS160      0.0038
     84  CD        25.2280   97.1700  -14.2660 C.3   160  LYS160      0.0206
     85  CE        26.6700   97.8170  -14.0470 C.3   160  LYS160      0.1093
     86  NZ        26.6910   99.3400  -13.7720 N.3   160  LYS160     -0.1314
@<TRIPOS>BOND
     1    26    27    1
     2    27    28    1
     3    27    30    1
     4    28    29    2
     5    28    31   am
     6    36    35    1
     7    31    32    1
     8    35    32    1
     9    32    33    1
    10     8     6    1
    11    47    46    2
    12    33    34    2
    13    33    37   am
    14    46    45    1
    15    37    38    1
    16     6     7    1
    17     6     5    1
    18     2     5    1
    19     2     1    1
    20     2     3    1
    21    48    45    1
    22    48    49    1
    23    45    44    1
    24    38    39    1
    25    38    41    1
    26    44    39   am
    27    44    50    1
    28     3     4    2
    29    39    40    2
    30    50    49    1
    31    43    41    1
    32    41    42    1
    33    76    75    1
    34    20    19    2
    35     9    10    1
    36    58    56   am
    37    77    75    1
    38    19    18    1
    39    75    74    2
    40    15    14   ar
    41    56    55    1
    42    56    57    2
    43    14    13    1
    44    14    16   ar
    45    21    18    1
    46    21    22    1
    47    10    13    1
    48    10    11    1
    49    55    52    1
    50    25    23   am
    51    18    17    1
    52    74    73    1
    53    73    72    1
    54    54    53    2
    55    11    12    2
    56    72    71    1
    57    23    22    1
    58    23    24    2
    59    52    53    1
    60    52    51    1
    61    53    59   am
    62    63    64    1
    63    63    60    1
    64    71    68    1
    65    59    60    1
    66    64    66   am
    67    64    65    2
    68    60    61    1
    69    67    68    1
    70    67    61   am
    71    68    69    1
    72    61    62    2
    73    69    78   am
    74    69    70    2
    75    78    79    1
    76    83    82    1
    77    83    84    1
    78    82    79    1
    79    81    80    2
    80    79    80    1
    81    84    85    1
    82    85    86    1
