@<TRIPOS>MOLECULE
tmp/3cgeA00.pdb
 170 162 0 0 0
SMALL
GASTEIGER

@<TRIPOS>ATOM
      1  N         51.4450   55.5800   22.1100 N.3     9  ASP9       -0.1225
      2  CA        50.7880   54.9550   23.2520 C.3     9  ASP9        0.1805
      3  C         51.7400   54.7650   24.4350 C.2     9  ASP9        0.2597
      4  O         52.5260   55.6570   24.7460 O.2     9  ASP9       -0.2718
      5  CB        50.1040   53.6450   22.8380 C.3     9  ASP9        0.1424
      6  CG        48.8730   53.3340   23.6770 C.2     9  ASP9        0.3668
      7  OD1       48.2210   54.2810   24.1610 O.co2   9  ASP9       -0.2456
      8  OD2       48.5460   52.1410   23.8450 O.co2   9  ASP9       -0.2456
      9  N         51.6750   53.6080   25.0860 N.am   10  ALA10      -0.1979
     10  CA        52.3460   53.4010   26.3660 C.3    10  ALA10       0.1597
     11  C         53.8490   53.7040   26.3400 C.2    10  ALA10       0.2287
     12  O         54.3120   54.5820   27.0780 O.2    10  ALA10      -0.2864
     13  CB        52.0670   51.9900   26.9040 C.3    10  ALA10       0.0319
     14  N         54.7020   57.5520   24.5450 N.3    13  MET13      -0.1230
     15  CA        54.3760   58.7340   25.3280 C.3    13  MET13       0.1702
     16  C         55.0150   58.7460   26.7230 C.2    13  MET13       0.2593
     17  O         55.2540   59.8150   27.2860 O.2    13  MET13      -0.2718
     18  CB        52.8650   58.9460   25.3900 C.3    13  MET13       0.0401
     19  CG        52.1940   58.9870   24.0150 C.3    13  MET13       0.0596
     20  SD        53.1600   59.8640   22.7550 S.3    13  MET13      -0.1393
     21  CE        52.8390   61.5740   23.1950 C.3    13  MET13       0.0692
     22  N         55.3050   57.5680   27.2760 N.am   14  SER14      -0.1952
     23  CA        56.1030   57.5060   28.5070 C.3    14  SER14       0.1924
     24  C         57.4740   58.1340   28.2590 C.2    14  SER14       0.2314
     25  O         57.9800   58.8690   29.1020 O.2    14  SER14      -0.2863
     26  CB        56.2470   56.0750   29.0230 C.3    14  SER14       0.2116
     27  OG        55.0180   55.6230   29.5620 O.3    14  SER14      -0.2180
     28  N         57.0730   62.0670   27.6870 N.3    17  MET17      -0.1230
     29  CA        56.9160   62.7920   28.9400 C.3    17  MET17       0.1702
     30  C         58.2480   63.0070   29.6620 C.2    17  MET17       0.2592
     31  O         58.4720   64.0630   30.2370 O.2    17  MET17      -0.2718
     32  CB        55.8990   62.0990   29.8510 C.3    17  MET17       0.0401
     33  CG        54.4560   62.1710   29.3340 C.3    17  MET17       0.0596
     34  SD        53.9550   63.8100   28.7630 S.3    17  MET17      -0.1393
     35  CE        54.0000   64.7170   30.3040 C.3    17  MET17       0.0692
     36  N         59.1310   62.0110   29.6100 N.am   18  GLN18      -0.1979
     37  CA        60.4620   62.1350   30.2070 C.3    18  GLN18       0.1601
     38  C         61.2780   63.2340   29.5230 C.2    18  GLN18       0.2287
     39  O         61.8780   64.0790   30.1900 O.2    18  GLN18      -0.2864
     40  CB        61.2180   60.8020   30.1590 C.3    18  GLN18       0.0394
     41  CG        60.6530   59.7080   31.0800 C.3    18  GLN18       0.0908
     42  CD        60.5920   60.1490   32.5310 C.2    18  GLN18       0.2608
     43  OE1       61.5040   60.8120   33.0300 O.2    18  GLN18      -0.2717
     44  NE2       59.5040   59.8050   33.2070 N.am   18  GLN18      -0.0878
     45  N         59.7920   66.7380   30.2320 N.3    21  ARG21      -0.1231
     46  CA        60.0190   67.1760   31.6040 C.3    21  ARG21       0.1694
     47  C         61.4810   67.4890   31.8950 C.2    21  ARG21       0.2592
     48  O         61.7700   68.3750   32.6940 O.2    21  ARG21      -0.2718
     49  CB        59.4970   66.1470   32.6020 C.3    21  ARG21       0.0321
     50  CG        58.0240   66.3030   32.9200 C.3    21  ARG21       0.0489
     51  CD        57.6570   65.5190   34.1730 C.3    21  ARG21       0.2205
     52  NE        57.7720   64.0690   33.9900 N.pl3  21  ARG21      -0.0865
     53  CZ        56.8130   63.2950   33.4860 C.cat  21  ARG21       0.5346
     54  NH1       55.6530   63.8180   33.0960 N.pl3  21  ARG21       0.1354
     55  NH2       57.0120   61.9900   33.3690 N.pl3  21  ARG21       0.1354
     56  N         62.3940   66.7790   31.2350 N.am   22  ASN22      -0.1974
     57  CA        63.8240   66.9080   31.5260 C.3    22  ASN22       0.1688
     58  C         64.6720   67.6400   30.4750 C.2    22  ASN22       0.2292
     59  O         65.9070   67.6400   30.5700 O.2    22  ASN22      -0.2864
     60  CB        64.4270   65.5390   31.8350 C.3    22  ASN22       0.1181
     61  CG        63.7800   64.8750   33.0330 C.2    22  ASN22       0.2629
     62  OD1       62.9820   63.9450   32.8880 O.2    22  ASN22      -0.2716
     63  ND2       64.1130   65.3550   34.2260 N.am   22  ASN22      -0.0877
     64  N         47.6330   57.5800   23.8700 N.3    38  SER38      -0.1202
     65  CA        47.5570   57.2220   25.2980 C.3    38  SER38       0.2020
     66  C         46.2080   56.6690   25.7530 C.2    38  SER38       0.2619
     67  O         45.4320   57.3670   26.4100 O.2    38  SER38      -0.2717
     68  CB        47.9250   58.4230   26.1720 C.3    38  SER38       0.2103
     69  OG        49.2420   58.8480   25.9120 O.3    38  SER38      -0.2182
     70  N         45.9310   55.4230   25.4000 N.am   39  TYR39      -0.1961
     71  CA        44.6770   54.7930   25.7800 C.3    39  TYR39       0.1771
     72  C         44.9550   53.4160   26.3870 C.2    39  TYR39       0.2619
     73  O         45.9950   52.8130   26.1320 O.2    39  TYR39      -0.2715
     74  CB        43.7270   54.7080   24.5720 C.3    39  TYR39       0.0574
     75  CG        44.1740   53.7000   23.5440 C.ar   39  TYR39      -0.0198
     76  CD1       43.6630   52.4000   23.5530 C.ar   39  TYR39      -0.0009
     77  CD2       45.1300   54.0270   22.5810 C.ar   39  TYR39      -0.0009
     78  CE1       44.0740   51.4620   22.6290 C.ar   39  TYR39       0.0417
     79  CE2       45.5580   53.0870   21.6500 C.ar   39  TYR39       0.0417
     80  CZ        45.0240   51.8050   21.6850 C.ar   39  TYR39       0.1957
     81  OH        45.4270   50.8590   20.7760 O.3    39  TYR39      -0.2866
     82  N         44.0180   52.9250   27.1850 N.am   40  ALA40      -0.1963
     83  CA        44.2060   51.6800   27.9150 C.3    40  ALA40       0.1728
     84  C         43.6270   50.4680   27.1740 C.2    40  ALA40       0.2616
     85  O         42.4400   50.1660   27.2980 O.2    40  ALA40      -0.2715
     86  CB        43.6040   51.8070   29.3160 C.3    40  ALA40       0.0334
     87  N         44.4730   49.7730   26.4130 N.am   41  GLN41      -0.1963
     88  CA        44.0690   48.5420   25.7140 C.3    41  GLN41       0.1733
     89  C         43.5180   47.4940   26.6830 C.2    41  GLN41       0.2616
     90  O         42.6950   46.6560   26.3070 O.2    41  GLN41      -0.2715
     91  CB        45.2490   47.9310   24.9520 C.3    41  GLN41       0.0408
     92  CG        45.6620   48.6740   23.7000 C.3    41  GLN41       0.0908
     93  CD        46.9750   48.1710   23.1120 C.2    41  GLN41       0.2608
     94  OE1       47.5160   47.1380   23.5290 O.2    41  GLN41      -0.2717
     95  NE2       47.4950   48.9070   22.1330 N.am   41  GLN41      -0.0878
     96  N         43.9890   47.5570   27.9270 N.am   42  CYS42      -0.1968
     97  CA        43.6130   46.6220   28.9850 C.3    42  CYS42       0.1712
     98  C         42.1370   46.6800   29.3610 C.2    42  CYS42       0.2296
     99  O         41.5850   45.7000   29.8630 O.2    42  CYS42      -0.2864
    100  CB        44.4670   46.8850   30.2280 C.3    42  CYS42       0.0983
    101  SG        44.5220   48.6320   30.6950 S.3    42  CYS42      -0.0798
    102  N         43.8690   57.9590   28.5850 N.3    60  ALA60      -0.1231
    103  CA        44.6310   58.4670   29.7200 C.3    60  ALA60       0.1694
    104  C         45.0120   59.9370   29.5420 C.2    60  ALA60       0.2591
    105  O         45.0140   60.7010   30.5120 O.2    60  ALA60      -0.2718
    106  CB        45.8790   57.6110   29.9520 C.3    60  ALA60       0.0304
    107  N         45.3320   60.3210   28.3060 N.am   61  ARG61      -0.1980
    108  CA        45.7590   61.6840   27.9870 C.3    61  ARG61       0.1597
    109  C         45.4550   62.0230   26.5270 C.2    61  ARG61       0.2287
    110  O         45.8690   61.2980   25.6140 O.2    61  ARG61      -0.2864
    111  CB        47.2550   61.8510   28.2810 C.3    61  ARG61       0.0334
    112  CG        47.7540   63.2890   28.2860 C.3    61  ARG61       0.0492
    113  CD        49.0740   63.4170   29.0320 C.3    61  ARG61       0.2205
    114  NE        48.8930   63.3180   30.4780 N.pl3  61  ARG61      -0.0865
    115  CZ        49.8750   63.1230   31.3560 C.cat  61  ARG61       0.5346
    116  NH1       51.1330   62.9990   30.9470 N.pl3  61  ARG61       0.1354
    117  NH2       49.5960   63.0490   32.6520 N.pl3  61  ARG61       0.1354
    118  N         48.6960   66.8240   25.0940 N.3    66  PHE66      -0.1241
    119  CA        50.0950   66.6310   24.6900 C.3    66  PHE66       0.1605
    120  C         50.6500   67.8400   23.9350 C.2    66  PHE66       0.2264
    121  O         51.7810   68.2680   24.1730 O.2    66  PHE66      -0.2867
    122  CB        50.2450   65.3680   23.8290 C.3    66  PHE66       0.0534
    123  CG        50.2150   64.0830   24.6080 C.ar   66  PHE66      -0.0203
    124  CD1       51.1830   63.8110   25.5780 C.ar   66  PHE66      -0.0042
    125  CD2       49.2380   63.1260   24.3540 C.ar   66  PHE66      -0.0042
    126  CE1       51.1700   62.6030   26.2960 C.ar   66  PHE66      -0.0003
    127  CE2       49.2170   61.9180   25.0670 C.ar   66  PHE66      -0.0003
    128  CZ        50.1880   61.6590   26.0410 C.ar   66  PHE66      -0.0000
    129  N         52.1070   70.3200   26.9480 N.3    70  TYR70      -0.1241
    130  CA        53.4780   69.8100   26.9490 C.3    70  TYR70       0.1605
    131  C         54.3150   70.2040   25.7270 C.2    70  TYR70       0.2264
    132  O         55.5190   69.9310   25.6810 O.2    70  TYR70      -0.2867
    133  CB        53.4760   68.2950   27.1710 C.3    70  TYR70       0.0534
    134  CG        52.7860   67.9040   28.4570 C.ar   70  TYR70      -0.0201
    135  CD1       51.5800   67.2060   28.4430 C.ar   70  TYR70      -0.0009
    136  CD2       53.3270   68.2620   29.6920 C.ar   70  TYR70      -0.0009
    137  CE1       50.9350   66.8540   29.6310 C.ar   70  TYR70       0.0417
    138  CE2       52.6920   67.9200   30.8840 C.ar   70  TYR70       0.0417
    139  CZ        51.4980   67.2150   30.8470 C.ar   70  TYR70       0.1957
    140  OH        50.8770   66.8730   32.0310 O.3    70  TYR70      -0.2866
    141  N         51.8820   45.6990   29.1200 N.3   300  GLY300     -0.1210
    142  CA        51.7510   47.1290   29.3980 C.3   300  GLY300      0.1956
    143  C         52.6410   47.6880   30.4900 C.2   300  GLY300      0.2612
    144  O         53.1180   48.8190   30.3850 O.2   300  GLY300     -0.2717
    145  N         52.8510   46.9130   31.5530 N.am  301  THR301     -0.1952
    146  CA        53.7760   47.3100   32.6260 C.3   301  THR301      0.1897
    147  C         55.1960   47.4830   32.0670 C.2   301  THR301      0.2313
    148  O         55.8120   48.5370   32.2430 O.2   301  THR301     -0.2863
    149  CB        53.7980   46.2930   33.7720 C.3   301  THR301      0.1794
    150  OG1       53.9990   44.9840   33.2320 O.3   301  THR301     -0.2208
    151  CG2       52.4920   46.3170   34.5280 C.3   301  THR301      0.0378
    152  N         55.5020   50.6080   29.5890 N.3   304  ASN304     -0.1240
    153  CA        55.6550   51.8640   30.3200 C.3   304  ASN304      0.1653
    154  C         57.0460   52.0170   30.9390 C.2   304  ASN304      0.2266
    155  O         57.6730   53.0720   30.8090 O.2   304  ASN304     -0.2867
    156  CB        54.5760   51.9900   31.3980 C.3   304  ASN304      0.1155
    157  CG        53.2490   52.4410   30.8330 C.2   304  ASN304      0.2627
    158  OD1       53.1040   53.5810   30.3940 O.2   304  ASN304     -0.2716
    159  ND2       52.2740   51.5430   30.8270 N.am  304  ASN304     -0.0877
    160  N         59.5940   54.8670   29.5890 N.3   308  ARG308     -0.1245
    161  CA        60.1620   55.8410   30.5130 C.3   308  ARG308      0.1563
    162  C         61.6910   55.8310   30.4410 C.2   308  ARG308      0.2260
    163  O         62.3210   56.8790   30.3270 O.2   308  ARG308     -0.2867
    164  CB        59.6830   55.5560   31.9390 C.3   308  ARG308      0.0307
    165  CG        60.3320   56.4150   33.0090 C.3   308  ARG308      0.0489
    166  CD        59.4500   56.4210   34.2470 C.3   308  ARG308      0.2205
    167  NE        60.0740   57.0470   35.4120 N.pl3 308  ARG308     -0.0865
    168  CZ        60.7700   56.3830   36.3320 C.cat 308  ARG308      0.5346
    169  NH1       60.9520   55.0810   36.2120 N.pl3 308  ARG308      0.1354
    170  NH2       61.2890   57.0260   37.3710 N.pl3 308  ARG308      0.1354
@<TRIPOS>BOND
     1    81    80    1
     2    79    80   ar
     3    79    77   ar
     4    80    78   ar
     5     1     2    1
     6    95    93   am
     7    77    75   ar
     8    78    76   ar
     9    20    21    1
    10    20    19    1
    11     5     2    1
    12     5     6    1
    13    93    94    2
    14    93    92    1
    15     2     3    1
    16    75    76   ar
    17    75    74    1
    18     6     8   ar
    19     6     7   ar
    20    92    91    1
    21   122   123    1
    22   122   119    1
    23    64    65    1
    24   120   121    2
    25   120   119    1
    26    19    18    1
    27   125   123   ar
    28   125   127   ar
    29     3     4    2
    30     3     9   am
    31    14    15    1
    32    74    71    1
    33   123   124   ar
    34   119   118    1
    35    91    88    1
    36   127   128   ar
    37     9    10    1
    38    65    66    1
    39    65    68    1
    40    15    18    1
    41    15    16    1
    42    70    66   am
    43    70    71    1
    44   124   126   ar
    45   110   109    2
    46   132   131    2
    47    88    87    1
    48    88    89    1
    49   131   130    1
    50    66    67    2
    51    71    72    1
    52    69    68    1
    53   128   126   ar
    54    73    72    2
    55    90    89    2
    56    11    10    1
    57    11    12    2
    58    10    13    1
    59    72    82   am
    60    87    84   am
    61   109   108    1
    62    89    96   am
    63    16    22   am
    64    16    17    2
    65   129   130    1
    66   130   133    1
    67   133   134    1
    68    84    85    2
    69    84    83    1
    70    82    83    1
    71    22    23    1
    72    28    29    1
    73    83    86    1
    74    96    97    1
    75   108   111    1
    76   108   107    1
    77    24    23    1
    78    24    25    2
    79   111   112    1
    80   112   113    1
    81   107   104   am
    82   135   134   ar
    83   135   137   ar
    84   134   136   ar
    85    23    26    1
    86   102   103    1
    87    34    33    1
    88    34    35    1
    89    29    30    1
    90    29    32    1
    91    97    98    1
    92    97   100    1
    93    26    27    1
    94   113   114    1
    95   141   142    1
    96    33    32    1
    97    98    99    2
    98   142   143    1
    99    38    39    2
   100    38    37    1
   101   104   103    1
   102   104   105    2
   103   160   161    1
   104   152   153    1
   105    36    30   am
   106    36    37    1
   107   137   139   ar
   108    30    31    2
   109   136   138   ar
   110   103   106    1
   111    40    37    1
   112    40    41    1
   113   100   101    1
   114    45    46    1
   115   153   154    1
   116   153   156    1
   117   163   162    2
   118   144   143    2
   119   158   157    2
   120   162   161    1
   121    58    59    2
   122    58    57    1
   123   114   115    2
   124   143   145   am
   125   161   164    1
   126   155   154    2
   127   159   157   am
   128   157   156    1
   129   139   138   ar
   130   139   140    1
   131   116   115    1
   132    41    42    1
   133    56    57    1
   134    56    47   am
   135   115   117    1
   136    57    60    1
   137   145   146    1
   138    46    47    1
   139    46    49    1
   140    60    61    1
   141    47    48    2
   142   164   165    1
   143   147   148    2
   144   147   146    1
   145    42    43    2
   146    42    44   am
   147    49    50    1
   148   146   149    1
   149    62    61    2
   150    50    51    1
   151   165   166    1
   152    61    63   am
   153    54    53    1
   154   150   149    1
   155    55    53    1
   156    53    52    2
   157   149   151    1
   158    52    51    1
   159   166   167    1
   160   167   168    2
   161   169   168    1
   162   168   170    1
