@<TRIPOS>MOLECULE
tmp/3cgfA00.pdb
 164 152 0 0 0
SMALL
GASTEIGER

@<TRIPOS>ATOM
      1  N         27.9120    7.4820   35.7680 N.3    26  ILE26      -0.1231
      2  CA        27.5640    6.9540   34.4640 C.3    26  ILE26       0.1692
      3  C         27.6180    7.9820   33.3630 C.2    26  ILE26       0.2593
      4  O         27.4720    7.6440   32.1930 O.2    26  ILE26      -0.2718
      5  CB        26.1700    6.3200   34.4540 C.3    26  ILE26       0.0266
      6  CG1       25.1060    7.3740   34.7230 C.3    26  ILE26       0.0019
      7  CG2       26.1120    5.2030   35.4740 C.3    26  ILE26       0.0020
      8  CD1       23.7180    6.7840   34.7620 C.3    26  ILE26       0.0001
      9  N         27.8430    9.2360   33.7200 N.am   27  GLY27      -0.1942
     10  CA        27.9080   10.2520   32.6960 C.3    27  GLY27       0.2014
     11  C         28.0250   11.6450   33.2460 C.2    27  GLY27       0.2640
     12  O         28.0240   11.8570   34.4640 O.2    27  GLY27      -0.2714
     13  N         28.1360   12.5960   32.3240 N.am   28  SER28      -0.1935
     14  CA        28.2490   14.0080   32.6630 C.3    28  SER28       0.2055
     15  C         27.7650   14.8560   31.5150 C.2    28  SER28       0.2643
     16  O         28.1290   14.6230   30.3650 O.2    28  SER28      -0.2714
     17  CB        29.6960   14.3930   32.9640 C.3    28  SER28       0.2130
     18  OG        29.7850   15.8000   33.1460 O.3    28  SER28      -0.2179
     19  N         26.9440   15.8460   31.8430 N.am   29  GLY29      -0.1954
     20  CA        26.4180   16.7490   30.8370 C.3    29  GLY29       0.1869
     21  C         26.9170   18.1660   31.0560 C.2    29  GLY29       0.2309
     22  O         28.1000   18.3830   31.3440 O.2    29  GLY29      -0.2863
     23  N         24.6900   20.4880   32.8970 N.3    31  GLN31      -0.1231
     24  CA        24.0660   20.9110   34.1490 C.3    31  GLN31       0.1698
     25  C         24.3520   19.9630   35.3130 C.2    31  GLN31       0.2592
     26  O         23.7020   20.0440   36.3510 O.2    31  GLN31      -0.2718
     27  CB        22.5460   21.0680   33.9850 C.3    31  GLN31       0.0381
     28  CG        21.8040   19.8120   33.5200 C.3    31  GLN31       0.0905
     29  CD        20.2940   19.9140   33.7250 C.2    31  GLN31       0.2608
     30  OE1       19.6740   20.9440   33.4240 O.2    31  GLN31      -0.2717
     31  NE2       19.6960   18.8410   34.2370 N.am   31  GLN31      -0.0878
     32  N         25.3190   19.0670   35.1490 N.am   32  GLY32      -0.1957
     33  CA        25.6280   18.1710   36.2460 C.3    32  GLY32       0.1869
     34  C         26.2160   16.8190   35.8880 C.2    32  GLY32       0.2309
     35  O         26.3330   16.4630   34.7160 O.2    32  GLY32      -0.2863
     36  N         26.0550   12.6080   36.4280 N.3    34  VAL34      -0.1245
     37  CA        25.0460   11.5980   36.7040 C.3    34  VAL34       0.1561
     38  C         25.6250   10.2620   37.1400 C.2    34  VAL34       0.2260
     39  O         26.4610    9.6760   36.4510 O.2    34  VAL34      -0.2867
     40  CB        24.1550   11.3520   35.4810 C.3    34  VAL34       0.0252
     41  CG1       23.3020   10.1030   35.6940 C.3    34  VAL34       0.0019
     42  CG2       23.2660   12.5590   35.2460 C.3    34  VAL34       0.0019
     43  N         19.2400    6.2600   38.4660 N.3    47  ALA47      -0.1245
     44  CA        20.2180    7.2380   38.0490 C.3    47  ALA47       0.1562
     45  C         19.9860    8.5090   38.8380 C.2    47  ALA47       0.2260
     46  O         18.8500    8.9990   38.9170 O.2    47  ALA47      -0.2867
     47  CB        20.0770    7.5300   36.5790 C.3    47  ALA47       0.0290
     48  N         21.1600   12.5140   39.2620 N.3    49  LYS49      -0.1245
     49  CA        21.8130   13.6580   38.6390 C.3    49  LYS49       0.1561
     50  C         21.9410   14.7920   39.6670 C.2    49  LYS49       0.2260
     51  O         20.9650   15.1870   40.3110 O.2    49  LYS49      -0.2867
     52  CB        20.9980   14.1400   37.4260 C.3    49  LYS49       0.0271
     53  CG        21.4810   15.4730   36.8270 C.3    49  LYS49       0.0035
     54  CD        20.4540   16.0470   35.8510 C.3    49  LYS49       0.0206
     55  CE        20.9090   15.9150   34.4060 C.3    49  LYS49       0.1093
     56  NZ        19.8280   16.2230   33.4190 N.3    49  LYS49      -0.1314
     57  N          9.1420   17.6830   34.5780 N.3    71  MET71      -0.1245
     58  CA         9.4280   16.2770   34.7980 C.3    71  MET71       0.1570
     59  C          8.5050   15.6690   35.8460 C.2    71  MET71       0.2261
     60  O          8.4360   14.4480   35.9860 O.2    71  MET71      -0.2867
     61  CB        10.8920   16.0830   35.1940 C.3    71  MET71       0.0387
     62  CG        11.4720   14.7890   34.6790 C.3    71  MET71       0.0595
     63  SD        13.1050   14.4950   35.3320 S.3    71  MET71      -0.1393
     64  CE        14.1350   14.9300   33.9270 C.3    71  MET71       0.0692
     65  N         11.6530    9.8250   30.1160 N.3    80  ILE80      -0.1245
     66  CA        12.2870    9.4790   31.3880 C.3    80  ILE80       0.1561
     67  C         11.4170    9.8650   32.5800 C.2    80  ILE80       0.2260
     68  O         10.9280   11.0040   32.6870 O.2    80  ILE80      -0.2867
     69  CB        13.6670   10.1740   31.5010 C.3    80  ILE80       0.0252
     70  CG1       14.5160    9.5120   32.5880 C.3    80  ILE80       0.0019
     71  CG2       13.4650   11.6500   31.7780 C.3    80  ILE80       0.0019
     72  CD1       14.8140    8.0460   32.3200 C.3    80  ILE80       0.0001
     73  N         16.1600    9.3710   39.0530 N.3   102  MET102     -0.1230
     74  CA        15.2740    8.8340   38.0340 C.3   102  MET102      0.1702
     75  C         15.5730    7.3790   37.8010 C.2   102  MET102      0.2592
     76  O         16.4890    6.8170   38.4020 O.2   102  MET102     -0.2718
     77  CB        15.4980    9.5620   36.7210 C.3   102  MET102      0.0401
     78  CG        15.5660   11.0410   36.8750 C.3   102  MET102      0.0596
     79  SD        16.4600   11.7440   35.5320 S.3   102  MET102     -0.1393
     80  CE        18.1530   11.6020   36.1190 C.3   102  MET102      0.0692
     81  N         14.7990    6.7820   36.8990 N.am  103  GLU103     -0.1966
     82  CA        14.9860    5.3840   36.5410 C.3   103  GLU103      0.1733
     83  C         16.2670    5.2920   35.7280 C.2   103  GLU103      0.2616
     84  O         16.5800    6.1940   34.9550 O.2   103  GLU103     -0.2715
     85  CB        13.8140    4.8830   35.7170 C.3   103  GLU103      0.0429
     86  CG        13.6510    5.5610   34.3830 C.3   103  GLU103      0.1163
     87  CD        12.3940    5.0920   33.6780 C.2   103  GLU103      0.3649
     88  OE1       12.2380    3.8560   33.5110 O.co2 103  GLU103     -0.2457
     89  OE2       11.5650    5.9550   33.2990 O.co2 103  GLU103     -0.2457
     90  N         16.9930    4.1930   35.9060 N.am  104  LEU104     -0.1963
     91  CA        18.2620    3.9800   35.2260 C.3   104  LEU104      0.1728
     92  C         18.1870    3.2170   33.9100 C.2   104  LEU104      0.2616
     93  O         17.8160    2.0450   33.8830 O.2   104  LEU104     -0.2715
     94  CB        19.2220    3.2370   36.1480 C.3   104  LEU104      0.0311
     95  CG        20.6420    2.9830   35.6250 C.3   104  LEU104      0.0022
     96  CD1       21.3840    4.3200   35.4220 C.3   104  LEU104      0.0001
     97  CD2       21.4020    2.1070   36.6160 C.3   104  LEU104      0.0001
     98  N         18.5640    3.8670   32.8180 N.am  105  MET105     -0.1963
     99  CA        18.5480    3.1860   31.5420 C.3   105  MET105      0.1736
    100  C         19.8800    2.4710   31.3860 C.2   105  MET105      0.2616
    101  O         20.7140    2.5140   32.2870 O.2   105  MET105     -0.2715
    102  CB        18.3170    4.1890   30.4210 C.3   105  MET105      0.0427
    103  CG        16.9650    4.8420   30.5530 C.3   105  MET105      0.0599
    104  SD        15.8000    3.5620   30.9960 S.3   105  MET105     -0.1393
    105  CE        15.0040    3.3380   29.4570 C.3   105  MET105      0.0692
    106  N         20.0940    1.8030   30.2600 N.am  106  ASP106     -0.1957
    107  CA        21.3460    1.0800   30.0950 C.3   106  ASP106      0.1840
    108  C         22.4180    1.8190   29.3240 C.2   106  ASP106      0.2622
    109  O         23.6090    1.6340   29.5820 O.2   106  ASP106     -0.2715
    110  CB        21.0990   -0.2690   29.4200 C.3   106  ASP106      0.1450
    111  CG        20.2410   -1.1840   30.2570 C.2   106  ASP106      0.3671
    112  OD1       20.4240   -1.1880   31.4930 O.co2 106  ASP106     -0.2456
    113  OD2       19.3890   -1.9030   29.6890 O.co2 106  ASP106     -0.2456
    114  N         21.9980    2.6660   28.3900 N.am  107  ALA107     -0.1963
    115  CA        22.9480    3.3740   27.5490 C.3   107  ALA107      0.1728
    116  C         22.4430    4.6340   26.8820 C.2   107  ALA107      0.2616
    117  O         21.2630    4.9830   26.9360 O.2   107  ALA107     -0.2715
    118  CB        23.4600    2.4260   26.4790 C.3   107  ALA107      0.0334
    119  N         23.3780    5.2850   26.2040 N.am  108  ASN108     -0.1972
    120  CA        23.1410    6.5200   25.4790 C.3   108  ASN108      0.1688
    121  C         22.7890    6.2020   24.0390 C.2   108  ASN108      0.2292
    122  O         23.1580    5.1390   23.5410 O.2   108  ASN108     -0.2864
    123  CB        24.4160    7.3280   25.4730 C.3   108  ASN108      0.1181
    124  CG        24.1770    8.7170   25.0800 C.2   108  ASN108      0.2629
    125  OD1       25.0560    9.3890   24.5500 O.2   108  ASN108     -0.2716
    126  ND2       22.9690    9.1890   25.3510 N.am  108  ASN108     -0.0877
    127  N         25.7680    5.7090   21.7380 N.3   111  GLN111     -0.1245
    128  CA        26.3510    4.3640   21.7780 C.3   111  GLN111      0.1566
    129  C         25.6160    3.4210   20.8300 C.2   111  GLN111      0.2260
    130  O         26.2160    2.5470   20.2030 O.2   111  GLN111     -0.2867
    131  CB        26.2820    3.8000   23.2020 C.3   111  GLN111      0.0367
    132  CG        26.5300    4.8330   24.3000 C.3   111  GLN111      0.0905
    133  CD        26.5510    4.2330   25.7140 C.2   111  GLN111      0.2608
    134  OE1       26.3360    4.9410   26.7060 O.2   111  GLN111     -0.2717
    135  NE2       26.8100    2.9280   25.8080 N.am  111  GLN111     -0.0878
    136  N         22.6230   12.2400   22.7220 N.3   149  SER149     -0.1202
    137  CA        22.9350   12.2610   24.1420 C.3   149  SER149      0.2020
    138  C         21.6870   12.4410   25.0200 C.2   149  SER149      0.2618
    139  O         21.4990   11.7010   25.9760 O.2   149  SER149     -0.2717
    140  CB        23.9670   13.3530   24.4300 C.3   149  SER149      0.2103
    141  OG        23.9270   14.3770   23.4450 O.3   149  SER149     -0.2182
    142  N         20.8130   13.3890   24.7000 N.am  150  ASN150     -0.1974
    143  CA        19.6130   13.5770   25.5130 C.3   150  ASN150      0.1688
    144  C         18.5730   12.4700   25.3910 C.2   150  ASN150      0.2292
    145  O         17.5140   12.5400   26.0040 O.2   150  ASN150     -0.2864
    146  CB        18.9580   14.9220   25.2060 C.3   150  ASN150      0.1181
    147  CG        19.8910   16.0790   25.4740 C.2   150  ASN150      0.2629
    148  OD1       20.8490   15.9410   26.2580 O.2   150  ASN150     -0.2716
    149  ND2       19.6270   17.2290   24.8430 N.am  150  ASN150     -0.0877
    150  N         17.9040    8.3350   25.8500 N.3   152  VAL152     -0.1245
    151  CA        18.4710    7.1290   26.4580 C.3   152  VAL152      0.1561
    152  C         17.6560    5.8740   26.2050 C.2   152  VAL152      0.2260
    153  O         16.4350    5.9350   26.0810 O.2   152  VAL152     -0.2867
    154  CB        18.6450    7.3010   27.9840 C.3   152  VAL152      0.0252
    155  CG1       19.6580    8.3930   28.2560 C.3   152  VAL152      0.0019
    156  CG2       17.3030    7.6360   28.6480 C.3   152  VAL152      0.0019
    157  N         15.2200   12.4660   27.7320 N.3   162  LEU162     -0.1245
    158  CA        15.6180   13.0500   29.0120 C.3   162  LEU162      0.1561
    159  C         15.1260   14.4600   29.3370 C.2   162  LEU162      0.2260
    160  O         14.5410   14.6720   30.3940 O.2   162  LEU162     -0.2867
    161  CB        17.1390   13.0180   29.1490 C.3   162  LEU162      0.0270
    162  CG        17.9110   11.6920   29.1030 C.3   162  LEU162      0.0019
    163  CD1       19.3970   11.9770   29.3050 C.3   162  LEU162      0.0001
    164  CD2       17.4160   10.7340   30.1730 C.3   162  LEU162      0.0001
@<TRIPOS>BOND
     1   130   129    2
     2   129   128    1
     3   127   128    1
     4   128   131    1
     5   136   137    1
     6   131   132    1
     7   141   140    1
     8   122   121    2
     9   121   120    1
    10   137   140    1
    11   137   138    1
    12   132   133    1
    13   125   124    2
    14   142   138   am
    15   142   143    1
    16   149   147   am
    17   138   139    2
    18   124   126   am
    19   124   123    1
    20   146   147    1
    21   146   143    1
    22   144   143    1
    23   144   145    2
    24   123   120    1
    25   147   148    2
    26   120   119    1
    27   133   135   am
    28   133   134    2
    29   150   151    1
    30   153   152    2
    31   119   116   am
    32   152   151    1
    33   151   154    1
    34   118   115    1
    35   116   117    2
    36   116   115    1
    37   115   114    1
    38   157   158    1
    39   154   155    1
    40   154   156    1
    41   114   108   am
    42   158   161    1
    43   158   159    1
    44   162   161    1
    45   162   163    1
    46   162   164    1
    47   108   109    2
    48   108   107    1
    49   159   160    2
    50   110   107    1
    51   110   111    1
    52   105   104    1
    53   113   111   ar
    54   107   106    1
    55    65    66    1
    56   111   112   ar
    57   106   100   am
    58    16    15    2
    59   102   103    1
    60   102    99    1
    61   103   104    1
    62    20    21    1
    63    20    19    1
    64    21    22    2
    65   100    99    1
    66   100   101    2
    67    66    69    1
    68    66    67    1
    69    69    71    1
    70    69    70    1
    71    15    19   am
    72    15    14    1
    73    99    98    1
    74     4     3    2
    75    72    70    1
    76    13    14    1
    77    13    11   am
    78    67    68    2
    79    14    17    1
    80    10    11    1
    81    10     9    1
    82    98    92   am
    83    23    24    1
    84    17    18    1
    85    11    12    2
    86    89    87   ar
    87     3     9   am
    88     3     2    1
    89    56    55    1
    90    30    29    2
    91    88    87   ar
    92    28    29    1
    93    28    27    1
    94    87    86    1
    95    29    31   am
    96    93    92    2
    97    92    91    1
    98    64    63    1
    99    27    24    1
   100    24    25    1
   101    86    85    1
   102    55    54    1
   103     5     2    1
   104     5     6    1
   105     5     7    1
   106     2     1    1
   107    57    58    1
   108    62    61    1
   109    62    63    1
   110    35    34    2
   111     6     8    1
   112    58    61    1
   113    58    59    1
   114    84    83    2
   115    32    25   am
   116    32    33    1
   117    91    90    1
   118    91    94    1
   119    42    40    1
   120    25    26    2
   121    96    95    1
   122    40    41    1
   123    40    37    1
   124    79    80    1
   125    79    78    1
   126    95    94    1
   127    95    97    1
   128    85    82    1
   129    83    90   am
   130    83    82    1
   131    59    60    2
   132    54    53    1
   133    34    33    1
   134    36    37    1
   135    39    38    2
   136    82    81    1
   137    47    44    1
   138    37    38    1
   139    77    78    1
   140    77    74    1
   141    53    52    1
   142    81    75   am
   143    52    49    1
   144    75    74    1
   145    75    76    2
   146    74    73    1
   147    44    43    1
   148    44    45    1
   149    49    48    1
   150    49    50    1
   151    45    46    2
   152    50    51    2
