@<TRIPOS>MOLECULE
tmp/3cggA00.pdb
 127 119 0 0 0
SMALL
GASTEIGER

@<TRIPOS>ATOM
      1  N         27.0040   45.6730   12.9580 N.3    43  ALA43      -0.1231
      2  CA        28.2790   46.2330   12.4670 C.3    43  ALA43       0.1694
      3  C         29.3170   46.1130   13.5680 C.2    43  ALA43       0.2592
      4  O         29.0940   46.6250   14.6520 O.2    43  ALA43      -0.2718
      5  CB        28.0890   47.7340   12.0970 C.3    43  ALA43       0.0304
      6  N         30.4160   45.4200   13.2900 N.am   44  GLY44      -0.1957
      7  CA        31.3600   44.9920   14.3060 C.3    44  GLY44       0.1869
      8  C         30.7250   44.0130   15.3010 C.2    44  GLY44       0.2309
      9  O         30.7440   44.2580   16.5070 O.2    44  GLY44      -0.2863
     10  N         28.6750   41.7560   10.4160 N.3    64  THR64      -0.1203
     11  CA        30.0050   41.9020    9.8500 C.3    64  THR64       0.1994
     12  C         31.0240   42.2200   10.9630 C.2    64  THR64       0.2618
     13  O         30.7560   43.0050   11.8820 O.2    64  THR64      -0.2717
     14  CB        29.9760   42.9750    8.6870 C.3    64  THR64       0.1784
     15  OG1       31.2070   42.9380    7.9690 O.3    64  THR64      -0.2211
     16  CG2       29.7510   44.3520    9.2330 C.3    64  THR64       0.0376
     17  N         32.1800   41.5840   10.8890 N.am   65  ASP65      -0.1959
     18  CA        33.2820   41.8170   11.8000 C.3    65  ASP65       0.1840
     19  C         34.5950   41.4320   11.1010 C.2    65  ASP65       0.2621
     20  O         34.6420   40.5890   10.1820 O.2    65  ASP65      -0.2715
     21  CB        33.1180   40.9990   13.0870 C.3    65  ASP65       0.1450
     22  CG        34.0190   41.4910   14.2420 C.2    65  ASP65       0.3671
     23  OD1       35.1660   41.0580   14.3950 O.co2  65  ASP65      -0.2456
     24  OD2       33.5550   42.2980   15.0390 O.co2  65  ASP65      -0.2456
     25  N         35.6810   42.0260   11.5590 N.am   66  LEU66      -0.1977
     26  CA        36.9820   41.8060   10.9070 C.3    66  LEU66       0.1596
     27  C         37.6560   40.5070   11.3950 C.2    66  LEU66       0.2287
     28  O         38.5910   40.0440   10.8000 O.2    66  LEU66      -0.2864
     29  CB        37.8740   43.0300   11.1180 C.3    66  LEU66       0.0297
     30  CG        38.2520   43.4190   12.5470 C.3    66  LEU66       0.0022
     31  CD1       39.3850   42.5540   13.1200 C.3    66  LEU66       0.0001
     32  CD2       38.6480   44.8460   12.5540 C.3    66  LEU66       0.0001
     33  N         34.8580   41.2180    7.4170 N.3    86  GLY86      -0.1210
     34  CA        35.2520   42.4270    6.7190 C.3    86  GLY86       0.1956
     35  C         35.6010   43.5340    7.6880 C.2    86  GLY86       0.2612
     36  O         35.2000   43.5110    8.8560 O.2    86  GLY86      -0.2717
     37  N         36.3900   44.4820    7.2040 N.am   87  ASP87      -0.1959
     38  CA        36.8240   45.6070    7.9970 C.3    87  ASP87       0.1840
     39  C         36.1280   46.7920    7.3990 C.2    87  ASP87       0.2621
     40  O         36.4290   47.1860    6.2890 O.2    87  ASP87      -0.2715
     41  CB        38.3640   45.7600    7.9620 C.3    87  ASP87       0.1450
     42  CG        38.8590   46.9770    8.7430 C.2    87  ASP87       0.3671
     43  OD1       38.0320   47.8560    9.0650 O.co2  87  ASP87      -0.2456
     44  OD2       40.0820   47.0540    9.0390 O.co2  87  ASP87      -0.2456
     45  N         35.2000   47.3440    8.1680 N.am   88  LEU88      -0.1977
     46  CA        34.3310   48.4500    7.7730 C.3    88  LEU88       0.1596
     47  C         35.0340   49.7210    7.4220 C.2    88  LEU88       0.2287
     48  O         34.4760   50.5420    6.7380 O.2    88  LEU88      -0.2864
     49  CB        33.3570   48.7860    8.9130 C.3    88  LEU88       0.0297
     50  CG        31.9010   48.4860    8.6520 C.3    88  LEU88       0.0022
     51  CD1       31.7760   47.2680    7.7460 C.3    88  LEU88       0.0001
     52  CD2       31.1440   48.3310    9.9670 C.3    88  LEU88       0.0001
     53  N         25.8750   49.2460   16.2170 N.3   103  SER103     -0.1217
     54  CA        27.2600   49.0060   16.6930 C.3   103  SER103      0.1889
     55  C         27.2760   48.9920   18.2110 C.2   103  SER103      0.2288
     56  O         27.0230   50.0140   18.8250 O.2   103  SER103     -0.2866
     57  CB        28.2120   50.1100   16.2400 C.3   103  SER103      0.2089
     58  OG        29.4920   49.9390   16.8660 O.3   103  SER103     -0.2183
     59  N         34.6540   48.8800   21.0430 N.3   107  VAL107     -0.1245
     60  CA        36.1190   48.6380   20.8500 C.3   107  VAL107      0.1561
     61  C         36.7020   49.6630   19.8370 C.2   107  VAL107      0.2260
     62  O         37.4900   49.3050   18.9650 O.2   107  VAL107     -0.2867
     63  CB        36.4320   47.1560   20.4280 C.3   107  VAL107      0.0252
     64  CG1       36.3400   46.2130   21.6430 C.3   107  VAL107      0.0019
     65  CG2       35.4870   46.6480   19.2970 C.3   107  VAL107      0.0019
     66  N         40.0280   51.0260   16.0270 N.3   110  LEU110     -0.1245
     67  CA        39.7740   51.6940   14.7570 C.3   110  LEU110      0.1561
     68  C         40.7620   52.8700   14.5620 C.2   110  LEU110      0.2260
     69  O         40.7390   53.8260   15.3190 O.2   110  LEU110     -0.2867
     70  CB        38.3210   52.1760   14.7300 C.3   110  LEU110      0.0270
     71  CG        37.8650   52.8360   13.4230 C.3   110  LEU110      0.0019
     72  CD1       38.0500   51.8960   12.2150 C.3   110  LEU110      0.0001
     73  CD2       36.4270   53.3090   13.5570 C.3   110  LEU110      0.0001
     74  N         34.6330   54.3190    7.8320 N.3   118  ALA118     -0.1231
     75  CA        33.7530   53.4640    8.5990 C.3   118  ALA118      0.1694
     76  C         32.3420   54.0410    8.7000 C.2   118  ALA118      0.2591
     77  O         31.3710   53.3250    8.4300 O.2   118  ALA118     -0.2718
     78  CB        34.3210   53.2170    9.9770 C.3   118  ALA118      0.0304
     79  N         32.2130   55.3140    9.0800 N.am  119  LEU119     -0.1980
     80  CA        30.8830   55.9090    9.2370 C.3   119  LEU119      0.1596
     81  C         30.1630   56.1580    7.8960 C.2   119  LEU119      0.2287
     82  O         28.9440   55.9910    7.8460 O.2   119  LEU119     -0.2864
     83  CB        30.8880   57.1900   10.1050 C.3   119  LEU119      0.0297
     84  CG        31.2980   56.9980   11.5910 C.3   119  LEU119      0.0022
     85  CD1       31.2830   58.3140   12.3590 C.3   119  LEU119      0.0001
     86  CD2       30.4740   55.9710   12.3210 C.3   119  LEU119      0.0001
     87  N         28.5650   52.9220    6.9970 N.3   122  ILE122     -0.1245
     88  CA        27.2980   52.7460    7.7390 C.3   122  ILE122      0.1561
     89  C         26.1630   53.4910    7.0760 C.2   122  ILE122      0.2260
     90  O         25.0910   52.9460    6.8080 O.2   122  ILE122     -0.2867
     91  CB        27.4530   53.2590    9.2460 C.3   122  ILE122      0.0252
     92  CG1       28.3920   52.3350   10.0070 C.3   122  ILE122      0.0019
     93  CG2       26.0560   53.3560    9.9980 C.3   122  ILE122      0.0019
     94  CD1       28.0190   50.8250    9.9100 C.3   122  ILE122      0.0001
     95  N         24.6110   53.5870   17.6970 N.3   134  ILE134     -0.1245
     96  CA        26.0030   53.3060   17.9690 C.3   134  ILE134      0.1561
     97  C         26.2740   53.6540   19.4280 C.2   134  ILE134      0.2260
     98  O         26.0550   54.7690   19.8190 O.2   134  ILE134     -0.2867
     99  CB        26.9510   54.1130   17.0320 C.3   134  ILE134      0.0252
    100  CG1       26.7000   53.7790   15.5490 C.3   134  ILE134      0.0019
    101  CG2       28.4310   53.9040   17.4470 C.3   134  ILE134      0.0019
    102  CD1       27.1720   54.8850   14.5520 C.3   134  ILE134      0.0001
    103  N         37.5360   57.0320   21.5370 N.3   142  TRP142     -0.1241
    104  CA        36.9250   58.0670   20.6830 C.3   142  TRP142      0.1605
    105  C         36.1980   59.1270   21.5190 C.2   142  TRP142      0.2264
    106  O         35.2790   58.7990   22.2960 O.2   142  TRP142     -0.2867
    107  CB        35.9540   57.4190   19.6850 C.3   142  TRP142      0.0550
    108  CG        35.7490   58.1900   18.3590 C.ar  142  TRP142      0.0003
    109  CD1       36.0040   59.5180   18.1050 C.ar  142  TRP142      0.0946
    110  CD2       35.2180   57.6540   17.1360 C.ar  142  TRP142      0.0152
    111  NE1       35.6930   59.8250   16.7920 N.ar  142  TRP142     -0.2442
    112  CE2       35.2070   58.7050   16.1790 C.ar  142  TRP142      0.0810
    113  CE3       34.7510   56.3990   16.7570 C.ar  142  TRP142      0.0012
    114  CZ2       34.7370   58.5310   14.8760 C.ar  142  TRP142      0.0191
    115  CZ3       34.2860   56.2250   15.4370 C.ar  142  TRP142      0.0001
    116  CH2       34.2850   57.2840   14.5240 C.ar  142  TRP142      0.0015
    117  N         33.4720   62.1820   17.4070 N.3   147  PHE147     -0.1241
    118  CA        32.6030   61.1280   16.8450 C.3   147  PHE147      0.1605
    119  C         31.3570   61.7060   16.2020 C.2   147  PHE147      0.2264
    120  O         31.0400   61.3720   15.0650 O.2   147  PHE147     -0.2867
    121  CB        32.2220   60.1090   17.9140 C.3   147  PHE147      0.0534
    122  CG        31.0920   59.1910   17.5150 C.ar  147  PHE147     -0.0203
    123  CD1       31.3180   58.1150   16.6780 C.ar  147  PHE147     -0.0042
    124  CD2       29.8100   59.4110   17.9760 C.ar  147  PHE147     -0.0042
    125  CE1       30.2890   57.2650   16.3310 C.ar  147  PHE147     -0.0003
    126  CE2       28.7650   58.5670   17.6130 C.ar  147  PHE147     -0.0003
    127  CZ        29.0200   57.4990   16.7930 C.ar  147  PHE147     -0.0000
@<TRIPOS>BOND
     1    40    39    2
     2    34    33    1
     3    34    35    1
     4    48    47    2
     5    90    89    2
     6    87    88    1
     7    89    88    1
     8    37    35   am
     9    37    38    1
    10    39    38    1
    11    39    45   am
    12    47    46    1
    13    35    36    2
    14    88    91    1
    15    51    50    1
    16    46    45    1
    17    46    49    1
    18    74    75    1
    19    82    81    2
    20    81    80    1
    21    41    38    1
    22    41    42    1
    23    15    14    1
    24    77    76    2
    25    75    76    1
    26    75    78    1
    27    50    49    1
    28    50    52    1
    29    14    16    1
    30    14    11    1
    31    76    79   am
    32    42    44   ar
    33    42    43   ar
    34    79    80    1
    35    80    83    1
    36    91    93    1
    37    91    92    1
    38    11    10    1
    39    11    12    1
    40    94    92    1
    41    83    84    1
    42    20    19    2
    43    28    27    2
    44    17    12   am
    45    17    18    1
    46    26    29    1
    47    26    27    1
    48    26    25    1
    49    12    13    2
    50    19    25   am
    51    19    18    1
    52    29    30    1
    53    84    86    1
    54    84    85    1
    55    18    21    1
    56     5     2    1
    57    72    71    1
    58     2     1    1
    59     2     3    1
    60    30    32    1
    61    30    31    1
    62    21    22    1
    63     6     3   am
    64     6     7    1
    65    71    73    1
    66    71    70    1
    67     3     4    2
    68    22    23   ar
    69    22    24   ar
    70     7     8    1
    71   116   114   ar
    72   116   115   ar
    73   102   100    1
    74    68    67    1
    75    68    69    2
    76    70    67    1
    77    67    66    1
    78   114   112   ar
    79   120   119    2
    80     8     9    2
    81   115   113   ar
    82   100    99    1
    83   112   111   ar
    84   112   110   ar
    85   119   118    1
    86    53    54    1
    87    57    54    1
    88    57    58    1
    89   125   123   ar
    90   125   127   ar
    91   123   122   ar
    92    54    55    1
    93   113   110   ar
    94   111   109   ar
    95   127   126   ar
    96   118   117    1
    97   118   121    1
    98    99   101    1
    99    99    96    1
   100   110   108   ar
   101   122   121    1
   102   122   124   ar
   103   126   124   ar
   104    95    96    1
   105    96    97    1
   106   109   108   ar
   107    55    56    2
   108   108   107    1
   109    62    61    2
   110    65    63    1
   111    97    98    2
   112   107   104    1
   113    61    60    1
   114    63    60    1
   115    63    64    1
   116   104   105    1
   117   104   103    1
   118    60    59    1
   119   105   106    2
