@<TRIPOS>MOLECULE
tmp/3cgoA00.pdb
 139 128 0 0 0
SMALL
GASTEIGER

@<TRIPOS>ATOM
      1  N         28.2430    7.6080   36.0850 N.3    26  ILE26      -0.1231
      2  CA        27.8820    7.0890   34.7620 C.3    26  ILE26       0.1692
      3  C         28.0280    8.1100   33.6550 C.2    26  ILE26       0.2593
      4  O         28.1120    7.7430   32.4840 O.2    26  ILE26      -0.2718
      5  CB        26.4150    6.5680   34.7100 C.3    26  ILE26       0.0266
      6  CG1       25.4340    7.7020   35.0130 C.3    26  ILE26       0.0019
      7  CG2       26.2240    5.4140   35.6780 C.3    26  ILE26       0.0020
      8  CD1       24.0130    7.2240   35.1840 C.3    26  ILE26       0.0001
      9  N         28.0430    9.3880   34.0220 N.am   27  GLY27      -0.1942
     10  CA        28.1840   10.4400   33.0330 C.3    27  GLY27       0.2014
     11  C         28.1230   11.8530   33.5950 C.2    27  GLY27       0.2640
     12  O         28.0020   12.0660   34.8050 O.2    27  GLY27      -0.2714
     13  N         28.2160   12.8250   32.6910 N.am   28  SER28      -0.1935
     14  CA        28.1640   14.2490   33.0260 C.3    28  SER28       0.2055
     15  C         27.5920   15.0030   31.8380 C.2    28  SER28       0.2643
     16  O         27.9060   14.6910   30.6880 O.2    28  SER28      -0.2714
     17  CB        29.5600   14.7920   33.3220 C.3    28  SER28       0.2130
     18  OG        29.6530   16.1590   32.9510 O.3    28  SER28      -0.2179
     19  N         26.7510   15.9900   32.1200 N.am   29  GLY29      -0.1954
     20  CA        26.1570   16.7830   31.0620 C.3    29  GLY29       0.1869
     21  C         26.7200   18.1900   31.0850 C.2    29  GLY29       0.2309
     22  O         27.8790   18.4010   31.4540 O.2    29  GLY29      -0.2863
     23  N         24.9460   19.1780   35.0830 N.3    32  GLY32      -0.1225
     24  CA        25.1010   18.3380   36.2630 C.3    32  GLY32       0.1811
     25  C         25.8180   17.0110   36.0570 C.2    32  GLY32       0.2280
     26  O         25.8560   16.4620   34.9510 O.2    32  GLY32      -0.2866
     27  N         26.2290   12.9660   36.7780 N.3    34  VAL34      -0.1245
     28  CA        25.2710   11.8930   37.0320 C.3    34  VAL34       0.1561
     29  C         25.8740   10.6080   37.5950 C.2    34  VAL34       0.2260
     30  O         26.9590   10.1980   37.1990 O.2    34  VAL34      -0.2867
     31  CB        24.4940   11.5470   35.7570 C.3    34  VAL34       0.0252
     32  CG1       23.3460   10.6270   36.0930 C.3    34  VAL34       0.0019
     33  CG2       23.9780   12.8080   35.1200 C.3    34  VAL34       0.0019
     34  N         19.2770    6.3470   38.7070 N.3    47  ALA47      -0.1245
     35  CA        20.2890    7.2900   38.2640 C.3    47  ALA47       0.1562
     36  C         20.0640    8.5580   39.0670 C.2    47  ALA47       0.2260
     37  O         18.9090    8.9860   39.2410 O.2    47  ALA47      -0.2867
     38  CB        20.1260    7.5720   36.7860 C.3    47  ALA47       0.0290
     39  N         21.1760   12.6420   39.4670 N.3    49  LYS49      -0.1245
     40  CA        21.7940   13.8010   38.8290 C.3    49  LYS49       0.1561
     41  C         21.8720   14.9650   39.8200 C.2    49  LYS49       0.2260
     42  O         20.8680   15.4040   40.3970 O.2    49  LYS49      -0.2867
     43  CB        20.9790   14.1940   37.5910 C.3    49  LYS49       0.0271
     44  CG        21.3300   15.5570   36.9600 C.3    49  LYS49       0.0035
     45  CD        20.4840   15.8160   35.6920 C.3    49  LYS49       0.0206
     46  CE        20.6620   17.2460   35.1560 C.3    49  LYS49       0.1093
     47  NZ        19.8250   17.5940   33.9660 N.3    49  LYS49      -0.1314
     48  N         11.7240    9.9570   30.2120 N.3    80  ILE80      -0.1245
     49  CA        12.3400    9.6740   31.5040 C.3    80  ILE80       0.1561
     50  C         11.4770   10.1540   32.6740 C.2    80  ILE80       0.2260
     51  O         11.0940   11.3330   32.7630 O.2    80  ILE80      -0.2867
     52  CB        13.7430   10.3300   31.5770 C.3    80  ILE80       0.0252
     53  CG1       14.6200    9.6210   32.6100 C.3    80  ILE80       0.0019
     54  CG2       13.6160   11.7870   31.9590 C.3    80  ILE80       0.0019
     55  CD1       15.1360    8.2840   32.1460 C.3    80  ILE80       0.0001
     56  N         16.1550    9.4230   38.9900 N.3   102  MET102     -0.1230
     57  CA        15.3030    8.8750   37.9440 C.3   102  MET102      0.1702
     58  C         15.6930    7.4400   37.6350 C.2   102  MET102      0.2592
     59  O         16.7420    6.9650   38.0690 O.2   102  MET102     -0.2718
     60  CB        15.4110    9.7630   36.6930 C.3   102  MET102      0.0401
     61  CG        16.8460   10.0760   36.3220 C.3   102  MET102      0.0596
     62  SD        17.0800   11.4530   35.2190 S.3   102  MET102     -0.1393
     63  CE        17.4710   12.6650   36.3510 C.3   102  MET102      0.0692
     64  N         14.8410    6.7380   36.9010 N.am  103  GLU103     -0.1966
     65  CA        15.1270    5.3530   36.5460 C.3   103  GLU103      0.1733
     66  C         16.4180    5.2580   35.7390 C.2   103  GLU103      0.2616
     67  O         16.6900    6.1040   34.8890 O.2   103  GLU103     -0.2715
     68  CB        13.9870    4.7810   35.7380 C.3   103  GLU103      0.0429
     69  CG        13.8550    5.3990   34.3990 C.3   103  GLU103      0.1163
     70  CD        12.6270    4.8970   33.7050 C.2   103  GLU103      0.3649
     71  OE1       12.4800    3.6470   33.6410 O.co2 103  GLU103     -0.2457
     72  OE2       11.8220    5.7490   33.2370 O.co2 103  GLU103     -0.2457
     73  N         17.2070    4.2290   36.0190 N.am  104  LEU104     -0.1963
     74  CA        18.4780    4.0320   35.3670 C.3   104  LEU104      0.1728
     75  C         18.3610    3.4050   33.9910 C.2   104  LEU104      0.2616
     76  O         17.8270    2.3070   33.8200 O.2   104  LEU104     -0.2715
     77  CB        19.3920    3.1580   36.2300 C.3   104  LEU104      0.0311
     78  CG        20.7760    2.8910   35.6250 C.3   104  LEU104      0.0022
     79  CD1       21.5570    4.2130   35.5050 C.3   104  LEU104      0.0001
     80  CD2       21.5300    1.8990   36.4830 C.3   104  LEU104      0.0001
     81  N         18.8900    4.1150   33.0110 N.am  105  MET105     -0.1963
     82  CA        18.8580    3.6540   31.6510 C.3   105  MET105      0.1736
     83  C         20.2130    3.0250   31.3660 C.2   105  MET105      0.2616
     84  O         21.1770    3.2160   32.1220 O.2   105  MET105     -0.2715
     85  CB        18.5810    4.8340   30.7260 C.3   105  MET105      0.0427
     86  CG        17.2100    5.4080   30.9480 C.3   105  MET105      0.0599
     87  SD        15.9830    4.0670   30.8090 S.3   105  MET105     -0.1393
     88  CE        15.7060    4.1010   29.0380 C.3   105  MET105      0.0692
     89  N         20.2920    2.2710   30.2810 N.am  106  ASP106     -0.1957
     90  CA        21.5340    1.6140   29.9520 C.3   106  ASP106      0.1840
     91  C         22.5090    2.4560   29.1380 C.2   106  ASP106      0.2622
     92  O         23.7190    2.3920   29.3800 O.2   106  ASP106     -0.2715
     93  CB        21.2510    0.2980   29.2130 C.3   106  ASP106      0.1450
     94  CG        20.5900   -0.7540   30.1080 C.2   106  ASP106      0.3671
     95  OD1       20.8770   -0.7480   31.3290 O.co2 106  ASP106     -0.2456
     96  OD2       19.8050   -1.5920   29.5920 O.co2 106  ASP106     -0.2456
     97  N         21.9970    3.2710   28.2130 N.am  107  ALA107     -0.1963
     98  CA        22.8910    4.0160   27.3470 C.3   107  ALA107      0.1728
     99  C         22.3250    5.1830   26.5220 C.2   107  ALA107      0.2616
    100  O         21.1210    5.4360   26.5140 O.2   107  ALA107     -0.2715
    101  CB        23.5440    3.0180   26.3930 C.3   107  ALA107      0.0334
    102  N         23.2300    5.8540   25.8020 N.am  108  ASN108     -0.1972
    103  CA        22.9150    6.9970   24.9330 C.3   108  ASN108      0.1688
    104  C         22.7220    6.5220   23.4910 C.2   108  ASN108      0.2292
    105  O         23.1780    5.4350   23.1240 O.2   108  ASN108     -0.2864
    106  CB        24.0870    7.9730   24.8860 C.3   108  ASN108      0.1181
    107  CG        23.8010    9.2200   25.5610 C.2   108  ASN108      0.2629
    108  OD1       24.6920    9.8360   26.1450 O.2   108  ASN108     -0.2716
    109  ND2       22.5380    9.6400   25.5000 N.am  108  ASN108     -0.0877
    110  N         25.9420    5.7130   21.5700 N.3   111  GLN111     -0.1245
    111  CA        26.4780    4.3540   21.5430 C.3   111  GLN111      0.1566
    112  C         25.6750    3.4680   20.6030 C.2   111  GLN111      0.2260
    113  O         26.1840    2.4840   20.0570 O.2   111  GLN111     -0.2867
    114  CB        26.4790    3.7330   22.9440 C.3   111  GLN111      0.0367
    115  CG        27.4330    4.3950   23.9310 C.3   111  GLN111      0.0905
    116  CD        26.7760    5.4900   24.7530 C.2   111  GLN111      0.2608
    117  OE1       25.8110    5.2430   25.4860 O.2   111  GLN111     -0.2717
    118  NE2       27.2960    6.7000   24.6420 N.am  111  GLN111     -0.0878
    119  N         22.7220   12.5090   22.4500 N.3   149  SER149     -0.1217
    120  CA        23.1040   12.4740   23.8530 C.3   149  SER149      0.1889
    121  C         21.9580   12.7410   24.8290 C.2   149  SER149      0.2288
    122  O         22.0840   12.4460   26.0110 O.2   149  SER149     -0.2866
    123  CB        24.2460   13.4510   24.1010 C.3   149  SER149      0.2089
    124  OG        23.8880   14.7270   23.6320 O.3   149  SER149     -0.2183
    125  N         18.0200    8.4170   25.7630 N.3   152  VAL152     -0.1245
    126  CA        18.6110    7.2240   26.3430 C.3   152  VAL152      0.1561
    127  C         17.8020    5.9740   26.0880 C.2   152  VAL152      0.2260
    128  O         16.5870    6.0280   25.8640 O.2   152  VAL152     -0.2867
    129  CB        18.7850    7.4050   27.8480 C.3   152  VAL152      0.0252
    130  CG1       19.9300    8.3700   28.1340 C.3   152  VAL152      0.0019
    131  CG2       17.4850    7.9380   28.4440 C.3   152  VAL152      0.0019
    132  N         15.3720   12.6180   27.5830 N.3   162  LEU162     -0.1245
    133  CA        15.8370   13.1670   28.8580 C.3   162  LEU162      0.1561
    134  C         15.2960   14.5290   29.2600 C.2   162  LEU162      0.2260
    135  O         14.4980   14.6370   30.1790 O.2   162  LEU162     -0.2867
    136  CB        17.3540   13.2620   28.8640 C.3   162  LEU162      0.0270
    137  CG        18.1460   11.9710   28.8360 C.3   162  LEU162      0.0019
    138  CD1       19.6140   12.3340   29.0110 C.3   162  LEU162      0.0001
    139  CD2       17.7020   11.0340   29.9510 C.3   162  LEU162      0.0001
@<TRIPOS>BOND
     1   113   112    2
     2   112   111    1
     3   111   110    1
     4   111   114    1
     5   119   120    1
     6   114   115    1
     7   105   104    2
     8   104   103    1
     9   124   123    1
    10   120   123    1
    11   120   121    1
    12   115   116    1
    13   118   116   am
    14   116   117    2
    15   121   122    2
    16   106   103    1
    17   106   107    1
    18   103   102    1
    19   109   107   am
    20   107   108    2
    21   125   126    1
    22   102    99   am
    23   128   127    2
    24   127   126    1
    25   126   129    1
    26   101    98    1
    27   100    99    2
    28    99    98    1
    29    98    97    1
    30   132   133    1
    31   129   130    1
    32   129   131    1
    33    97    91   am
    34   137   136    1
    35   137   138    1
    36   137   139    1
    37   133   136    1
    38   133   134    1
    39    88    87    1
    40    91    92    2
    41    91    90    1
    42    93    90    1
    43    93    94    1
    44   134   135    2
    45    96    94   ar
    46    90    89    1
    47    94    95   ar
    48    48    49    1
    49    89    83   am
    50    16    15    2
    51    85    86    1
    52    85    82    1
    53    87    86    1
    54    20    21    1
    55    20    19    1
    56    21    22    2
    57    83    82    1
    58    83    84    2
    59    49    52    1
    60    49    50    1
    61    52    54    1
    62    52    53    1
    63    82    81    1
    64    15    19   am
    65    15    14    1
    66    55    53    1
    67     4     3    2
    68    50    51    2
    69    13    14    1
    70    13    11   am
    71    18    17    1
    72    81    75   am
    73    14    17    1
    74    10    11    1
    75    10     9    1
    76    72    70   ar
    77    11    12    2
    78    71    70   ar
    79     3     9   am
    80     3     2    1
    81    70    69    1
    82    76    75    2
    83    47    46    1
    84    75    74    1
    85    69    68    1
    86     5     2    1
    87     5     6    1
    88     5     7    1
    89     2     1    1
    90    67    66    2
    91    26    25    2
    92     6     8    1
    93    23    24    1
    94    33    31    1
    95    46    45    1
    96    62    61    1
    97    62    63    1
    98    74    73    1
    99    74    77    1
   100    79    78    1
   101    78    77    1
   102    78    80    1
   103    45    44    1
   104    68    65    1
   105    66    73   am
   106    66    65    1
   107    31    32    1
   108    31    28    1
   109    25    24    1
   110    61    60    1
   111    65    64    1
   112    60    57    1
   113    27    28    1
   114    38    35    1
   115    64    58   am
   116    44    43    1
   117    28    29    1
   118    30    29    2
   119    43    40    1
   120    58    57    1
   121    58    59    2
   122    57    56    1
   123    35    34    1
   124    35    36    1
   125    40    39    1
   126    40    41    1
   127    36    37    2
   128    41    42    2
