@<TRIPOS>MOLECULE
tmp/3cgtA00.pdb
 237 233 0 0 0
SMALL
GASTEIGER

@<TRIPOS>ATOM
      1  N         63.6350   -1.2210   13.2260 N.3    47  LYS47      -0.1245
      2  CA        62.3780   -0.6200   13.6660 C.3    47  LYS47       0.1561
      3  C         61.9260   -1.1640   15.0300 C.2    47  LYS47       0.2260
      4  O         61.0790   -0.5580   15.6860 O.2    47  LYS47      -0.2867
      5  CB        61.2860   -0.8500   12.6280 C.3    47  LYS47       0.0271
      6  CG        61.4710   -0.0620   11.3400 C.3    47  LYS47       0.0035
      7  CD        61.1130    1.4040   11.5370 C.3    47  LYS47       0.0206
      8  CE        60.9030    2.0970   10.1850 C.3    47  LYS47       0.1093
      9  NZ        60.1710    3.3940   10.3140 N.3    47  LYS47      -0.1314
     10  N         53.0180   -0.4340    9.7990 N.3    89  TYR89      -0.1241
     11  CA        52.8920    0.6030    8.7720 C.3    89  TYR89       0.1605
     12  C         53.0380   -0.0540    7.4140 C.2    89  TYR89       0.2264
     13  O         54.1620   -0.3220    6.9630 O.2    89  TYR89      -0.2867
     14  CB        53.9460    1.7130    8.9440 C.3    89  TYR89       0.0534
     15  CG        53.5480    2.7780    9.9420 C.ar   89  TYR89      -0.0201
     16  CD1       52.3460    3.4660    9.8090 C.ar   89  TYR89      -0.0009
     17  CD2       54.3540    3.0690   11.0450 C.ar   89  TYR89      -0.0009
     18  CE1       51.9420    4.4210   10.7530 C.ar   89  TYR89       0.0417
     19  CE2       53.9630    4.0250   11.9980 C.ar   89  TYR89       0.0417
     20  CZ        52.7520    4.6980   11.8450 C.ar   89  TYR89       0.1957
     21  OH        52.3590    5.6460   12.7730 O.3    89  TYR89      -0.2866
     22  N         56.5190   -1.4920   13.5070 N.3    94  ASN94      -0.1240
     23  CA        57.2200   -0.3680   14.1450 C.3    94  ASN94       0.1653
     24  C         56.9790   -0.3270   15.6580 C.2    94  ASN94       0.2266
     25  O         55.8590   -0.6140   16.1100 O.2    94  ASN94      -0.2867
     26  CB        56.7140    0.9630   13.5840 C.3    94  ASN94       0.1155
     27  CG        57.3190    1.3130   12.2540 C.2    94  ASN94       0.2627
     28  OD1       58.1310    2.2460   12.1600 O.2    94  ASN94      -0.2716
     29  ND2       56.9130    0.5960   11.2010 N.am   94  ASN94      -0.0877
     30  N         60.8640    2.4910   20.0220 N.3    97  TYR97      -0.1227
     31  CA        62.2660    2.4370   20.4630 C.3    97  TYR97       0.1736
     32  C         62.9470    3.8260   20.4890 C.2    97  TYR97       0.2595
     33  O         63.9110    4.0600   21.2300 O.2    97  TYR97      -0.2718
     34  CB        63.0620    1.5130   19.5370 C.3    97  TYR97       0.0548
     35  CG        63.3740    2.1560   18.1920 C.ar   97  TYR97      -0.0200
     36  CD1       62.4570    2.1070   17.1390 C.ar   97  TYR97      -0.0009
     37  CD2       64.5610    2.8780   18.0030 C.ar   97  TYR97      -0.0009
     38  CE1       62.7110    2.7680   15.9310 C.ar   97  TYR97       0.0417
     39  CE2       64.8280    3.5460   16.8050 C.ar   97  TYR97       0.0417
     40  CZ        63.9010    3.4870   15.7700 C.ar   97  TYR97       0.1957
     41  OH        64.1650    4.1390   14.5800 O.3    97  TYR97      -0.2866
     42  N         62.4690    4.7320   19.6430 N.am   98  HIS98      -0.1975
     43  CA        63.0360    6.0740   19.5390 C.3    98  HIS98       0.1656
     44  C         62.6480    7.0130   20.6670 C.2    98  HIS98       0.2291
     45  O         63.2390    8.0830   20.8060 O.2    98  HIS98      -0.2864
     46  CB        62.6620    6.6890   18.1970 C.3    98  HIS98       0.0771
     47  CG        61.2210    6.5260   17.8550 C.ar   98  HIS98       0.0820
     48  ND1       60.7770    5.6180   16.9190 N.ar   98  HIS98      -0.2267
     49  CD2       60.1160    7.1230   18.3540 C.ar   98  HIS98       0.1154
     50  CE1       59.4570    5.6610   16.8540 C.ar   98  HIS98       0.1986
     51  NE2       59.0330    6.5660   17.7170 N.ar   98  HIS98      -0.2212
     52  N         59.9450    8.7930   20.9730 N.3   100  TYR100     -0.1227
     53  CA        59.0130    9.8490   20.5570 C.3   100  TYR100      0.1736
     54  C         57.5060    9.6260   20.6800 C.2   100  TYR100      0.2595
     55  O         56.7440   10.5640   20.4820 O.2   100  TYR100     -0.2718
     56  CB        59.3330   10.3060   19.1360 C.3   100  TYR100      0.0548
     57  CG        60.7090   10.9110   19.0160 C.ar  100  TYR100     -0.0200
     58  CD1       61.0690   12.0120   19.7950 C.ar  100  TYR100     -0.0009
     59  CD2       61.6730   10.3580   18.1630 C.ar  100  TYR100     -0.0009
     60  CE1       62.3490   12.5490   19.7360 C.ar  100  TYR100      0.0417
     61  CE2       62.9620   10.8870   18.1000 C.ar  100  TYR100      0.0417
     62  CZ        63.2910   11.9860   18.8930 C.ar  100  TYR100      0.1957
     63  OH        64.5560   12.5450   18.8380 O.3   100  TYR100     -0.2866
     64  N         57.0600    8.4130   20.9860 N.am  101  TRP101     -0.1976
     65  CA        55.6290    8.1750   21.0920 C.3   101  TRP101      0.1640
     66  C         55.2090    8.1000   22.5390 C.2   101  TRP101      0.2290
     67  O         54.8440    7.0360   23.0380 O.2   101  TRP101     -0.2864
     68  CB        55.2480    6.9040   20.3630 C.3   101  TRP101      0.0576
     69  CG        55.4950    7.0180   18.9250 C.ar  101  TRP101      0.0006
     70  CD1       55.5790    8.1660   18.2090 C.ar  101  TRP101      0.0946
     71  CD2       55.6790    5.9460   17.9990 C.ar  101  TRP101      0.0152
     72  NE1       55.7930    7.8790   16.8890 N.ar  101  TRP101     -0.2442
     73  CE2       55.8620    6.5220   16.7310 C.ar  101  TRP101      0.0810
     74  CE3       55.7070    4.5490   18.1200 C.ar  101  TRP101      0.0012
     75  CZ2       56.0730    5.7590   15.5880 C.ar  101  TRP101      0.0191
     76  CZ3       55.9170    3.7880   16.9800 C.ar  101  TRP101      0.0001
     77  CH2       56.0970    4.3980   15.7320 C.ar  101  TRP101      0.0015
     78  N         53.0900   16.3200   20.8630 N.3   140  HIS140     -0.1241
     79  CA        52.1300   15.2490   20.6470 C.3   140  HIS140      0.1621
     80  C         52.3490   14.0320   21.5580 C.2   140  HIS140      0.2264
     81  O         53.3020   13.9970   22.3330 O.2   140  HIS140     -0.2867
     82  CB        52.3220   14.7790   19.2050 C.3   140  HIS140      0.0745
     83  CG        53.7280   14.3430   18.9190 C.ar  140  HIS140      0.0817
     84  ND1       54.5940   15.0760   18.1300 N.ar  140  HIS140     -0.2268
     85  CD2       54.4380   13.2780   19.3630 C.ar  140  HIS140      0.1154
     86  CE1       55.7730   14.4820   18.1020 C.ar  140  HIS140      0.1986
     87  NE2       55.7050   13.3900   18.8430 N.ar  140  HIS140     -0.2212
     88  N         50.8490    7.9530   17.4960 N.3   143  PRO143     -0.2116
     89  CA        50.0230    7.9040   16.2790 C.3   143  PRO143      0.1372
     90  C         48.5860    7.5070   16.6300 C.2   143  PRO143      0.2244
     91  O         48.3730    6.5850   17.4170 O.2   143  PRO143     -0.2868
     92  CB        50.6940    6.7990   15.4540 C.3   143  PRO143      0.0268
     93  CG        52.1010    6.8000   15.9290 C.3   143  PRO143      0.0207
     94  CD        51.9430    6.9660   17.4170 C.3   143  PRO143      0.0892
     95  N         52.1040   20.6530    5.4600 N.3   183  PHE183     -0.1241
     96  CA        53.3360   21.4210    5.5320 C.3   183  PHE183      0.1605
     97  C         53.4320   22.6040    4.5840 C.2   183  PHE183      0.2264
     98  O         54.5350   23.1160    4.3610 O.2   183  PHE183     -0.2867
     99  CB        54.5300   20.4860    5.3190 C.3   183  PHE183      0.0534
    100  CG        54.6100   19.3800    6.3360 C.ar  183  PHE183     -0.0203
    101  CD1       55.1680   19.6100    7.5920 C.ar  183  PHE183     -0.0042
    102  CD2       54.0930   18.1210    6.0560 C.ar  183  PHE183     -0.0042
    103  CE1       55.2050   18.6020    8.5510 C.ar  183  PHE183     -0.0003
    104  CE2       54.1240   17.1080    7.0040 C.ar  183  PHE183     -0.0003
    105  CZ        54.6800   17.3480    8.2530 C.ar  183  PHE183     -0.0000
    106  N         51.1800   16.3450   12.9740 N.3   194  LEU194     -0.1231
    107  CA        52.4780   16.0570   12.4070 C.3   194  LEU194      0.1693
    108  C         52.2830   14.5800   12.0540 C.2   194  LEU194      0.2592
    109  O         52.3330   13.7090   12.9310 O.2   194  LEU194     -0.2718
    110  CB        53.5520   16.2120   13.4780 C.3   194  LEU194      0.0284
    111  CG        54.8070   16.9970   13.1190 C.3   194  LEU194      0.0019
    112  CD1       55.8200   16.7990   14.2240 C.3   194  LEU194      0.0001
    113  CD2       55.3870   16.5020   11.8300 C.3   194  LEU194      0.0001
    114  N         51.9420   14.3250   10.7940 N.am  195  TYR195     -0.1962
    115  CA        51.6870   12.9840   10.2810 C.3   195  TYR195      0.1771
    116  C         50.4240   12.4670   10.9330 C.2   195  TYR195      0.2620
    117  O         49.3620   13.0790   10.7800 O.2   195  TYR195     -0.2715
    118  CB        52.8640   12.0370   10.5180 C.3   195  TYR195      0.0574
    119  CG        54.1500   12.5020    9.8780 C.ar  195  TYR195     -0.0198
    120  CD1       54.1580   13.0530    8.5940 C.ar  195  TYR195     -0.0009
    121  CD2       55.3560   12.4060   10.5580 C.ar  195  TYR195     -0.0009
    122  CE1       55.3380   13.4970    8.0100 C.ar  195  TYR195      0.0417
    123  CE2       56.5360   12.8400    9.9850 C.ar  195  TYR195      0.0417
    124  CZ        56.5250   13.3860    8.7140 C.ar  195  TYR195      0.1957
    125  OH        57.7060   13.8210    8.1570 O.3   195  TYR195     -0.2866
    126  N         50.5120   11.3570   11.6530 N.am  196  ASP196     -0.1957
    127  CA        49.3290   10.8210   12.2950 C.3   196  ASP196      0.1840
    128  C         49.4460   10.9210   13.8070 C.2   196  ASP196      0.2621
    129  O         48.7060   10.2720   14.5430 O.2   196  ASP196     -0.2715
    130  CB        49.0670    9.3800   11.8490 C.3   196  ASP196      0.1450
    131  CG        50.2210    8.4260   12.1620 C.2   196  ASP196      0.3671
    132  OD1       51.2960    8.8590   12.6440 O.co2 196  ASP196     -0.2456
    133  OD2       50.0390    7.2150   11.9140 O.co2 196  ASP196     -0.2456
    134  N         50.3840   11.7520   14.2560 N.am  197  LEU197     -0.1977
    135  CA        50.6150   11.9850   15.6760 C.3   197  LEU197      0.1596
    136  C         49.5950   12.9470   16.2950 C.2   197  LEU197      0.2287
    137  O         49.4920   14.1030   15.8600 O.2   197  LEU197     -0.2864
    138  CB        52.0220   12.5400   15.8490 C.3   197  LEU197      0.0297
    139  CG        53.0860   11.4830   15.5460 C.3   197  LEU197      0.0022
    140  CD1       54.4610   12.1050   15.5560 C.3   197  LEU197      0.0001
    141  CD2       53.0030   10.3780   16.6090 C.3   197  LEU197      0.0001
    142  N         66.3800   19.1070   25.2850 N.3   227  ARG227     -0.1245
    143  CA        66.3510   19.2280   23.8200 C.3   227  ARG227      0.1563
    144  C         64.8720   19.1490   23.4480 C.2   227  ARG227      0.2260
    145  O         64.2910   18.0510   23.4120 O.2   227  ARG227     -0.2867
    146  CB        67.0790   18.0440   23.1540 C.3   227  ARG227      0.0307
    147  CG        67.4410   18.1950   21.6610 C.3   227  ARG227      0.0489
    148  CD        66.2990   18.3690   20.6660 C.3   227  ARG227      0.2205
    149  NE        65.4030   17.2260   20.5400 N.pl3 227  ARG227     -0.0865
    150  CZ        64.9210   16.7490   19.3880 C.cat 227  ARG227      0.5346
    151  NH1       65.2410   17.3070   18.2320 N.pl3 227  ARG227      0.1354
    152  NH2       64.1050   15.7030   19.3920 N.pl3 227  ARG227      0.1354
    153  N         61.7040   18.9110   21.1570 N.3   229  ASP229     -0.1225
    154  CA        61.3540   18.3500   19.8610 C.3   229  ASP229      0.1805
    155  C         60.2720   19.1210   19.1050 C.2   229  ASP229      0.2597
    156  O         59.3160   19.6390   19.7000 O.2   229  ASP229     -0.2718
    157  CB        60.9130   16.8800   20.0620 C.3   229  ASP229      0.1424
    158  CG        60.4130   16.2300   18.7830 C.2   229  ASP229      0.3668
    159  OD1       61.2340   15.7300   17.9740 O.co2 229  ASP229     -0.2456
    160  OD2       59.1760   16.2110   18.5920 O.co2 229  ASP229     -0.2456
    161  N         60.4720   19.2600   17.7970 N.am  230  ALA230     -0.1979
    162  CA        59.4790   19.8940   16.9180 C.3   230  ALA230      0.1597
    163  C         58.9810   21.2750   17.3380 C.2   230  ALA230      0.2287
    164  O         57.7630   21.5320   17.3410 O.2   230  ALA230     -0.2864
    165  CB        58.2940   18.9480   16.7610 C.3   230  ALA230      0.0319
    166  N         59.0920   23.9330   15.7200 N.3   232  LYS232     -0.1231
    167  CA        58.4580   24.5690   14.5670 C.3   232  LYS232      0.1693
    168  C         56.9850   24.1260   14.4070 C.2   232  LYS232      0.2592
    169  O         56.2550   24.6440   13.5540 O.2   232  LYS232     -0.2718
    170  CB        59.2970   24.2110   13.3300 C.3   232  LYS232      0.0285
    171  CG        58.7180   24.5020   11.9640 C.3   232  LYS232      0.0035
    172  CD        59.6650   23.9710   10.8840 C.3   232  LYS232      0.0206
    173  CE        59.1730   24.2910    9.4870 C.3   232  LYS232      0.1093
    174  NZ        60.2180   23.9930    8.4460 N.3   232  LYS232     -0.1314
    175  N         56.5410   23.1890   15.2460 N.am  233  HIS233     -0.1976
    176  CA        55.1690   22.6920   15.1690 C.3   233  HIS233      0.1656
    177  C         54.3300   23.0010   16.3900 C.2   233  HIS233      0.2291
    178  O         53.2250   22.4470   16.5640 O.2   233  HIS233     -0.2864
    179  CB        55.1360   21.1970   14.8540 C.3   233  HIS233      0.0771
    180  CG        55.9000   20.8520   13.6280 C.ar  233  HIS233      0.0820
    181  ND1       55.3890   21.0420   12.3620 N.ar  233  HIS233     -0.2267
    182  CD2       57.1820   20.4470   13.4630 C.ar  233  HIS233      0.1154
    183  CE1       56.3270   20.7830   11.4700 C.ar  233  HIS233      0.1986
    184  NE2       57.4230   20.4190   12.1110 N.ar  233  HIS233     -0.2212
    185  N         64.6240   21.7760   17.9800 N.3   257  ALA257     -0.1245
    186  CA        64.8730   21.3150   16.6270 C.3   257  ALA257      0.1562
    187  C         63.9190   21.9580   15.6350 C.2   257  ALA257      0.2260
    188  O         62.7150   21.6840   15.6430 O.2   257  ALA257     -0.2867
    189  CB        64.7680   19.7930   16.5450 C.3   257  ALA257      0.0290
    190  N         63.9080   22.1230   11.8880 N.3   259  PHE259     -0.1241
    191  CA        64.5520   21.6470   10.6720 C.3   259  PHE259      0.1605
    192  C         64.6410   22.6760    9.5510 C.2   259  PHE259      0.2264
    193  O         63.6820   23.4040    9.3020 O.2   259  PHE259     -0.2867
    194  CB        63.8640   20.3850   10.1570 C.3   259  PHE259      0.0534
    195  CG        64.5200   19.8040    8.9440 C.ar  259  PHE259     -0.0203
    196  CD1       65.5470   18.8790    9.0750 C.ar  259  PHE259     -0.0042
    197  CD2       64.1190   20.1950    7.6670 C.ar  259  PHE259     -0.0042
    198  CE1       66.1710   18.3470    7.9490 C.ar  259  PHE259     -0.0003
    199  CE2       64.7330   19.6730    6.5330 C.ar  259  PHE259     -0.0003
    200  CZ        65.7640   18.7440    6.6750 C.ar  259  PHE259     -0.0000
    201  N         70.0860   11.8320   13.6110 N.3   327  HIS327     -0.1226
    202  CA        68.9640   10.9760   13.2650 C.3   327  HIS327      0.1752
    203  C         67.9860   11.4330   12.1900 C.2   327  HIS327      0.2596
    204  O         67.1130   10.6620   11.8130 O.2   327  HIS327     -0.2718
    205  CB        68.1950   10.6120   14.5270 C.3   327  HIS327      0.0759
    206  CG        67.4420   11.7560   15.1190 C.ar  327  HIS327      0.0818
    207  ND1       68.0650   12.8260   15.7310 N.ar  327  HIS327     -0.2268
    208  CD2       66.1120   12.0000   15.1980 C.ar  327  HIS327      0.1154
    209  CE1       67.1510   13.6810   16.1590 C.ar  327  HIS327      0.1986
    210  NE2       65.9580   13.2040   15.8490 N.ar  327  HIS327     -0.2212
    211  N         68.0950   12.6740   11.7230 N.am  328  ASP328     -0.1974
    212  CA        67.1780   13.1760   10.6880 C.3   328  ASP328      0.1709
    213  C         67.8080   13.2510    9.3190 C.2   328  ASP328      0.2293
    214  O         67.2330   13.8520    8.4020 O.2   328  ASP328     -0.2864
    215  CB        66.6930   14.5830   11.0240 C.3   328  ASP328      0.1436
    216  CG        65.7460   14.6110   12.1880 C.2   328  ASP328      0.3671
    217  OD1       64.9340   13.6630   12.3090 O.co2 328  ASP328     -0.2456
    218  OD2       65.8150   15.5940   12.9690 O.co2 328  ASP328     -0.2456
    219  N         66.1190    6.9620    7.7090 N.3   371  ASP371     -0.1239
    220  CA        65.4900    6.4380    8.9080 C.3   371  ASP371      0.1674
    221  C         64.9570    5.0670    8.4500 C.2   371  ASP371      0.2266
    222  O         64.2230    5.0050    7.4630 O.2   371  ASP371     -0.2867
    223  CB        64.3670    7.4120    9.2480 C.3   371  ASP371      0.1410
    224  CG        63.3730    6.8760   10.2430 C.2   371  ASP371      0.3668
    225  OD1       63.5860    5.8090   10.8420 O.co2 371  ASP371     -0.2456
    226  OD2       62.3500    7.5620   10.4150 O.co2 371  ASP371     -0.2456
    227  N         70.2940    4.7000   12.4970 N.3   375  ARG375     -0.1245
    228  CA        70.1750    4.5170   13.9400 C.3   375  ARG375      0.1563
    229  C         70.5370    3.0910   14.3170 C.2   375  ARG375      0.2260
    230  O         69.8660    2.4610   15.1400 O.2   375  ARG375     -0.2867
    231  CB        68.7480    4.8190   14.3980 C.3   375  ARG375      0.0307
    232  CG        68.3660    6.2750   14.3210 C.3   375  ARG375      0.0489
    233  CD        67.3870    6.5530   13.2210 C.3   375  ARG375      0.2205
    234  NE        66.0190    6.6060   13.7100 N.pl3 375  ARG375     -0.0865
    235  CZ        65.1850    7.6170   13.4900 C.cat 375  ARG375      0.5346
    236  NH1       65.5590    8.6750   12.7980 N.pl3 375  ARG375      0.1354
    237  NH2       63.9640    7.5640   13.9700 N.pl3 375  ARG375      0.1354
@<TRIPOS>BOND
     1    98    97    2
     2    97    96    1
     3    99    96    1
     4    99   100    1
     5    95    96    1
     6   102   100   ar
     7   102   104   ar
     8   100   101   ar
     9   199   200   ar
    10   199   197   ar
    11   200   198   ar
    12    13    12    2
    13   104   105   ar
    14    12    11    1
    15   222   221    2
    16   101   103   ar
    17   197   195   ar
    18   219   220    1
    19   198   196   ar
    20   122   120   ar
    21   122   124   ar
    22   125   124    1
    23   105   103   ar
    24   214   213    2
    25   174   173    1
    26   221   220    1
    27   120   119   ar
    28   124   123   ar
    29    11    14    1
    30    11    10    1
    31   220   223    1
    32    14    15    1
    33   195   196   ar
    34   195   194    1
    35   223   224    1
    36   193   192    2
    37   213   212    1
    38   173   172    1
    39   192   191    1
    40    16    15   ar
    41    16    18   ar
    42   119   118    1
    43   119   121   ar
    44    15    17   ar
    45   123   121   ar
    46   194   191    1
    47     8     9    1
    48     8     7    1
    49   224   226   ar
    50   224   225   ar
    51   115   118    1
    52   115   114    1
    53   115   116    1
    54   191   190    1
    55   212   215    1
    56   212   211    1
    57    18    20   ar
    58   117   116    2
    59   114   108   am
    60   172   171    1
    61   116   126   am
    62   215   216    1
    63    17    19   ar
    64    29    27   am
    65     6     7    1
    66     6     5    1
    67   183   184   ar
    68   183   181   ar
    69   126   127    1
    70   211   203   am
    71   204   203    2
    72   113   111    1
    73    20    19   ar
    74    20    21    1
    75   130   131    1
    76   130   127    1
    77   133   131   ar
    78   171   170    1
    79   108   107    1
    80   108   109    2
    81   184   182   ar
    82    28    27    2
    83   131   132   ar
    84   216   217   ar
    85   216   218   ar
    86   203   202    1
    87    27    26    1
    88   127   128    1
    89   181   180   ar
    90   107   106    1
    91   107   110    1
    92   227   228    1
    93     5     2    1
    94   236   235    1
    95   111   110    1
    96   111   112    1
    97   233   234    1
    98   233   232    1
    99     1     2    1
   100   202   201    1
   101   202   205    1
   102   170   167    1
   103   182   180   ar
   104   235   234    2
   105   235   237    1
   106    22    23    1
   107   169   168    2
   108    26    23    1
   109   180   179    1
   110     2     3    1
   111   128   134   am
   112   128   129    2
   113   228   229    1
   114   228   231    1
   115    23    24    1
   116   134   135    1
   117   229   230    2
   118   232   231    1
   119   168   167    1
   120   168   175   am
   121   205   206    1
   122   167   166    1
   123    41    40    1
   124   179   176    1
   125     3     4    2
   126   206   208   ar
   127   206   207   ar
   128   176   175    1
   129   176   177    1
   130   208   210   ar
   131    92    93    1
   132    92    89    1
   133   139   140    1
   134   139   138    1
   135   139   141    1
   136    75    77   ar
   137    75    73   ar
   138   187   188    2
   139   187   186    1
   140    24    25    2
   141   135   138    1
   142   135   136    1
   143   207   209   ar
   144    77    76   ar
   145    40    38   ar
   146    40    39   ar
   147   210   209   ar
   148   137   136    2
   149    93    94    1
   150    38    36   ar
   151    89    90    1
   152    89    88    1
   153   177   178    2
   154   189   186    1
   155   186   185    1
   156    90    91    2
   157    73    72   ar
   158    73    71   ar
   159   165   162    1
   160    39    37   ar
   161    50    48   ar
   162    50    51   ar
   163    72    70   ar
   164   162   163    1
   165   162   161    1
   166    48    47   ar
   167    76    74   ar
   168    36    35   ar
   169   163   164    2
   170    94    88    1
   171    51    49   ar
   172   161   155   am
   173    47    46    1
   174    47    49   ar
   175   159   158   ar
   176    71    74   ar
   177    71    69   ar
   178    37    35   ar
   179    61    59   ar
   180    61    62   ar
   181    86    84   ar
   182    86    87   ar
   183    84    83   ar
   184    59    57   ar
   185    35    34    1
   186    46    43    1
   187    70    69   ar
   188   151   150    1
   189   160   158   ar
   190   158   157    1
   191    63    62    1
   192    87    85   ar
   193    62    60   ar
   194    83    82    1
   195    83    85   ar
   196    69    68    1
   197    57    56    1
   198    57    58   ar
   199   155   156    2
   200   155   154    1
   201    56    53    1
   202    82    79    1
   203   150   152    1
   204   150   149    2
   205    34    31    1
   206    43    42    1
   207    43    44    1
   208    42    32   am
   209    60    58   ar
   210   154   157    1
   211   154   153    1
   212    30    31    1
   213    68    65    1
   214    31    32    1
   215    55    54    2
   216    32    33    2
   217   149   148    1
   218    53    54    1
   219    53    52    1
   220    79    78    1
   221    79    80    1
   222   148   147    1
   223    44    45    2
   224    54    64   am
   225    64    65    1
   226    65    66    1
   227    80    81    2
   228   147   146    1
   229    66    67    2
   230   146   143    1
   231   145   144    2
   232   144   143    1
   233   143   142    1
