@<TRIPOS>MOLECULE
tmp/3cgyA00.pdb
 107 101 0 0 0
SMALL
GASTEIGER

@<TRIPOS>ATOM
      1  N         61.1910    8.1830   13.4570 N.3    60  ASN60      -0.1225
      2  CA        61.4760    8.4320   14.8610 C.3    60  ASN60       0.1785
      3  C         62.9760    8.7100   15.0890 C.2    60  ASN60       0.2597
      4  O         63.3480    9.5530   15.9090 O.2    60  ASN60      -0.2718
      5  CB        61.0030    7.2250   15.6710 C.3    60  ASN60       0.1169
      6  CG        60.3640    7.6130   16.9830 C.2    60  ASN60       0.2627
      7  OD1       60.9880    7.5260   18.0280 O.2    60  ASN60      -0.2716
      8  ND2       59.1120    8.0480   16.9330 N.am   60  ASN60      -0.0877
      9  N         63.8350    8.0200   14.3500 N.am   61  ALA61      -0.1979
     10  CA        65.2740    8.2260   14.4920 C.3    61  ALA61       0.1597
     11  C         65.6220    9.6560   14.1260 C.2    61  ALA61       0.2287
     12  O         66.3180   10.3370   14.8700 O.2    61  ALA61      -0.2864
     13  CB        66.0580    7.2620   13.5960 C.3    61  ALA61       0.0319
     14  N         64.5750   12.3140   17.0180 N.3    64  TYR64      -0.1241
     15  CA        65.4070   12.3830   18.2140 C.3    64  TYR64       0.1605
     16  C         66.8910   12.6240   17.9730 C.2    64  TYR64       0.2264
     17  O         67.6190   12.9660   18.8980 O.2    64  TYR64      -0.2867
     18  CB        65.2270   11.1190   19.0550 C.3    64  TYR64       0.0534
     19  CG        63.8240   10.9570   19.5970 C.ar   64  TYR64      -0.0201
     20  CD1       62.9320   10.0520   19.0280 C.ar   64  TYR64      -0.0009
     21  CD2       63.3730   11.7470   20.6460 C.ar   64  TYR64      -0.0009
     22  CE1       61.6260    9.9420   19.4890 C.ar   64  TYR64       0.0417
     23  CE2       62.0660   11.6470   21.1120 C.ar   64  TYR64       0.0417
     24  CZ        61.1960   10.7440   20.5260 C.ar   64  TYR64       0.1957
     25  OH        59.8850   10.6710   20.9510 O.3    64  TYR64      -0.2866
     26  N         71.3920    6.7170   16.2220 N.3    86  ASP86      -0.1239
     27  CA        71.4640    8.1610   16.0830 C.3    86  ASP86       0.1674
     28  C         72.3270    8.8150   17.1460 C.2    86  ASP86       0.2266
     29  O         72.6060    8.2370   18.1850 O.2    86  ASP86      -0.2867
     30  CB        70.0510    8.7630   16.1180 C.3    86  ASP86       0.1410
     31  CG        69.3530    8.5780   17.4630 C.2    86  ASP86       0.3668
     32  OD1       69.7800    9.1960   18.4660 O.co2  86  ASP86      -0.2456
     33  OD2       68.3610    7.8160   17.5120 O.co2  86  ASP86      -0.2456
     34  N         70.2550   12.9760   21.8160 N.3    89  PRO89      -0.2102
     35  CA        70.3330   12.4870   23.1940 C.3    89  PRO89       0.1504
     36  C         69.7160   11.0770   23.1760 C.2    89  PRO89       0.2576
     37  O         68.8560   10.7930   22.3380 O.2    89  PRO89      -0.2718
     38  CB        69.5180   13.5170   23.9470 C.3    89  PRO89       0.0282
     39  CG        69.9620   14.8040   23.2400 C.3    89  PRO89       0.0208
     40  CD        69.9070   14.4100   21.7720 C.3    89  PRO89       0.0893
     41  N         70.1430   10.2000   24.0840 N.am   90  GLY90      -0.1943
     42  CA        69.6630    8.8270   24.0510 C.3    90  GLY90       0.2014
     43  C         68.5640    8.2440   24.9190 C.2    90  GLY90       0.2639
     44  O         67.7110    8.9420   25.4750 O.2    90  GLY90      -0.2714
     45  N         68.6000    6.9160   25.0080 N.am   91  ILE91      -0.1963
     46  CA        67.6350    6.1310   25.7690 C.3    91  ILE91       0.1712
     47  C         68.2870    5.4980   26.9980 C.2    91  ILE91       0.2458
     48  O         69.0920    4.5700   26.8820 O.2    91  ILE91      -0.2730
     49  CB        67.0470    4.9920   24.9030 C.3    91  ILE91       0.0289
     50  CG1       68.1580    4.0240   24.4990 C.3    91  ILE91       0.0022
     51  CG2       66.4360    5.5570   23.6310 C.3    91  ILE91       0.0023
     52  CD1       67.6600    2.7630   23.8950 C.3    91  ILE91       0.0001
     53  N         67.9750    6.0200   28.1940 N.am   92  PRO92      -0.2727
     54  CA        68.5510    5.4650   29.4270 C.3    92  PRO92       0.1402
     55  C         67.5800    4.5040   30.1160 C.2    92  PRO92       0.2269
     56  O         66.3600    4.6610   30.0160 O.2    92  PRO92      -0.2865
     57  CB        68.8250    6.7080   30.2770 C.3    92  PRO92       0.0296
     58  CG        68.7980    7.8580   29.2730 C.3    92  PRO92       0.0237
     59  CD        67.6670    7.4450   28.3830 C.3    92  PRO92       0.0939
     60  N         54.2850    3.0540   22.2910 N.3    93  VAL93      -0.1231
     61  CA        54.3070    4.5030   22.0940 C.3    93  VAL93       0.1692
     62  C         55.1950    4.8970   20.9170 C.2    93  VAL93       0.2593
     63  O         56.3850    4.6070   20.9060 O.2    93  VAL93      -0.2718
     64  CB        54.8080    5.2200   23.3650 C.3    93  VAL93       0.0266
     65  CG1       55.2480    6.6410   23.0350 C.3    93  VAL93       0.0020
     66  CG2       53.6970    5.2340   24.4090 C.3    93  VAL93       0.0020
     67  N         54.6200    5.5680   19.9280 N.am   94  GLY94      -0.1942
     68  CA        55.4170    5.9530   18.7810 C.3    94  GLY94       0.2014
     69  C         55.7220    4.7090   17.9790 C.2    94  GLY94       0.2638
     70  O         55.0580    4.4250   16.9850 O.2    94  GLY94      -0.2714
     71  N         56.7170    3.9490   18.4130 N.am   95  LEU95      -0.1977
     72  CA        57.0680    2.7250   17.7150 C.3    95  LEU95       0.1596
     73  C         56.0220    1.6230   17.8970 C.2    95  LEU95       0.2287
     74  O         56.2500    0.4740   17.5200 O.2    95  LEU95      -0.2864
     75  CB        58.4320    2.2290   18.1810 C.3    95  LEU95       0.0297
     76  CG        59.5840    3.1770   17.8580 C.3    95  LEU95       0.0022
     77  CD1       60.8910    2.4670   18.0960 C.3    95  LEU95       0.0001
     78  CD2       59.5030    3.6300   16.4180 C.3    95  LEU95       0.0001
     79  N         56.0480   -1.9660   16.4380 N.3    99  ARG99      -0.1245
     80  CA        56.0310   -3.0710   17.3900 C.3    99  ARG99       0.1563
     81  C         54.9460   -4.0640   17.0010 C.2    99  ARG99       0.2260
     82  O         55.1510   -5.2740   17.0790 O.2    99  ARG99      -0.2867
     83  CB        55.7970   -2.5470   18.8190 C.3    99  ARG99       0.0307
     84  CG        56.9520   -2.8160   19.7940 C.3    99  ARG99       0.0489
     85  CD        56.8010   -2.0350   21.0980 C.3    99  ARG99       0.2205
     86  NE        57.8910   -1.0740   21.2780 N.pl3  99  ARG99      -0.0865
     87  CZ        59.0770   -1.3610   21.8150 C.cat  99  ARG99       0.5346
     88  NH1       59.3430   -2.5850   22.2470 N.pl3  99  ARG99       0.1354
     89  NH2       60.0170   -0.4280   21.8960 N.pl3  99  ARG99       0.1354
     90  N         65.7740   -1.4890   22.2460 N.3   111  ALA111     -0.1245
     91  CA        66.4440   -0.2240   22.4630 C.3   111  ALA111      0.1562
     92  C         67.7160   -0.4600   23.2690 C.2   111  ALA111      0.2260
     93  O         67.7850   -1.3830   24.0770 O.2   111  ALA111     -0.2867
     94  CB        65.5220    0.7040   23.2120 C.3   111  ALA111      0.0290
     95  N         70.2100    6.6460   20.9120 N.3   119  ALA119     -0.1245
     96  CA        69.5750    5.3440   20.8400 C.3   119  ALA119      0.1562
     97  C         70.1320    4.4660   19.7290 C.2   119  ALA119      0.2260
     98  O         70.5480    4.9340   18.6660 O.2   119  ALA119     -0.2867
     99  CB        68.0890    5.5140   20.6660 C.3   119  ALA119      0.0290
    100  N         68.5190    1.5310   18.0770 N.3   121  MET121     -0.1245
    101  CA        67.3360    0.6980   17.8940 C.3   121  MET121      0.1570
    102  C         67.6270   -0.4700   16.9700 C.2   121  MET121      0.2261
    103  O         68.1080   -0.2780   15.8610 O.2   121  MET121     -0.2867
    104  CB        66.1850    1.5060   17.2990 C.3   121  MET121      0.0387
    105  CG        65.7630    2.7120   18.1010 C.3   121  MET121      0.0595
    106  SD        65.1970    2.3140   19.7490 S.3   121  MET121     -0.1393
    107  CE        63.6690    1.5200   19.4570 C.3   121  MET121      0.0692
@<TRIPOS>BOND
     1     1     2    1
     2    13    10    1
     3    11    10    1
     4    11    12    2
     5     9    10    1
     6     9     3   am
     7     2     3    1
     8     2     5    1
     9     3     4    2
    10     5     6    1
    11   103   102    2
    12    27    30    1
    13    27    26    1
    14    27    28    1
    15    30    31    1
    16    78    76    1
    17    79    80    1
    18     8     6   am
    19   102   101    1
    20     6     7    2
    21    70    69    2
    22    81    82    2
    23    81    80    1
    24    14    15    1
    25    28    29    2
    26   104   101    1
    27   104   105    1
    28    80    83    1
    29    31    33   ar
    30    31    32   ar
    31    74    73    2
    32    72    73    1
    33    72    75    1
    34    72    71    1
    35    76    77    1
    36    76    75    1
    37   101   100    1
    38    16    15    1
    39    16    17    2
    40    69    71   am
    41    69    68    1
    42   105   106    1
    43    15    18    1
    44    98    97    2
    45    68    67    1
    46    83    84    1
    47    20    22   ar
    48    20    19   ar
    49    18    19    1
    50   107   106    1
    51    22    24   ar
    52    19    21   ar
    53    97    96    1
    54    84    85    1
    55    67    62   am
    56    24    25    1
    57    24    23   ar
    58    21    23   ar
    59    99    96    1
    60    96    95    1
    61    63    62    2
    62    62    61    1
    63    85    86    1
    64    86    87    2
    65    40    34    1
    66    40    39    1
    67    87    89    1
    68    87    88    1
    69    34    35    1
    70    61    60    1
    71    61    64    1
    72    90    91    1
    73    37    36    2
    74    91    94    1
    75    91    92    1
    76    65    64    1
    77    36    35    1
    78    36    41   am
    79    35    38    1
    80    39    38    1
    81    92    93    2
    82    64    66    1
    83    51    49    1
    84    52    50    1
    85    42    41    1
    86    42    43    1
    87    50    49    1
    88    49    46    1
    89    43    45   am
    90    43    44    2
    91    45    46    1
    92    46    47    1
    93    48    47    2
    94    47    53   am
    95    53    59    1
    96    53    54    1
    97    59    58    1
    98    58    57    1
    99    54    55    1
   100    54    57    1
   101    56    55    2
