@<TRIPOS>MOLECULE
tmp/3ch0A00.pdb
 143 135 0 0 0
SMALL
GASTEIGER

@<TRIPOS>ATOM
      1  N         16.8070   16.4700   15.5590 N.3    13  HIS13      -0.1226
      2  CA        18.1200   16.9770   15.9580 C.3    13  HIS13       0.1752
      3  C         18.9700   17.2110   14.7000 C.2    13  HIS13       0.2595
      4  O         19.2180   16.2460   13.9440 O.2    13  HIS13      -0.2718
      5  CB        18.8210   15.9660   16.8950 C.3    13  HIS13       0.0759
      6  CG        20.0990   16.4300   17.5140 C.ar   13  HIS13       0.0818
      7  ND1       21.2680   15.6910   17.4560 N.ar   13  HIS13      -0.2268
      8  CD2       20.3880   17.5440   18.2360 C.ar   13  HIS13       0.1154
      9  CE1       22.2110   16.3300   18.1450 C.ar   13  HIS13       0.1986
     10  NE2       21.6920   17.4410   18.6440 N.ar   13  HIS13      -0.2212
     11  N         19.3840   18.4390   14.4460 N.am   14  ARG14      -0.1980
     12  CA        20.0990   18.7710   13.2180 C.3    14  ARG14       0.1597
     13  C         19.3350   18.3290   12.0020 C.2    14  ARG14       0.2287
     14  O         19.8760   17.8640   11.0120 O.2    14  ARG14      -0.2864
     15  CB        21.5370   18.2270   13.2270 C.3    14  ARG14       0.0334
     16  CG        22.2960   18.5130   14.5680 C.3    14  ARG14       0.0492
     17  CD        23.7530   18.1130   14.6050 C.3    14  ARG14       0.2205
     18  NE        24.1880   18.1520   15.9970 N.pl3  14  ARG14      -0.0865
     19  CZ        25.2820   17.5960   16.4410 C.cat  14  ARG14       0.5346
     20  NH1       26.2290   17.1570   15.6040 N.pl3  14  ARG14       0.1354
     21  NH2       25.4780   17.5600   17.7340 N.pl3  14  ARG14       0.1354
     22  N         19.9900   13.9690   11.9430 N.3    17  ARG17      -0.1245
     23  CA        21.3750   13.4260   11.7890 C.3    17  ARG17       0.1563
     24  C         21.4890   11.9190   11.6710 C.2    17  ARG17       0.2260
     25  O         22.3690   11.3980   10.9690 O.2    17  ARG17      -0.2867
     26  CB        22.2800   13.9100   12.9300 C.3    17  ARG17       0.0307
     27  CG        23.6640   13.2380   12.9870 C.3    17  ARG17       0.0489
     28  CD        24.5380   13.9040   14.0570 C.3    17  ARG17       0.2205
     29  NE        23.9830   13.7540   15.4010 N.pl3  17  ARG17      -0.0865
     30  CZ        24.6850   13.8110   16.5350 C.cat  17  ARG17       0.5346
     31  NH1       25.9710   14.0830   16.5060 N.pl3  17  ARG17       0.1354
     32  NH2       24.0750   13.5790   17.6960 N.pl3  17  ARG17       0.1354
     33  N         15.4190   21.3090   14.7610 N.3    40  GLU40      -0.1245
     34  CA        16.4580   21.6770   15.6910 C.3    40  GLU40       0.1567
     35  C         17.7930   21.8180   14.9080 C.2    40  GLU40       0.2260
     36  O         18.0960   21.0420   13.9850 O.2    40  GLU40      -0.2867
     37  CB        16.5650   20.6580   16.8240 C.3    40  GLU40       0.0388
     38  CG        17.5130   21.0260   17.9670 C.3    40  GLU40       0.1160
     39  CD        18.9820   20.9020   17.6560 C.2    40  GLU40       0.3649
     40  OE1       19.4290   20.1790   16.7210 O.co2  40  GLU40      -0.2457
     41  OE2       19.8000   21.5040   18.3960 O.co2  40  GLU40      -0.2457
     42  N         21.8640   24.2660   14.6120 N.3    42  ASP42      -0.1239
     43  CA        22.9640   25.0050   15.2350 C.3    42  ASP42       0.1674
     44  C         23.3980   26.1100   14.3090 C.2    42  ASP42       0.2266
     45  O         23.3620   25.9480   13.0930 O.2    42  ASP42      -0.2867
     46  CB        24.0950   24.0330   15.3880 C.3    42  ASP42       0.1410
     47  CG        23.6950   22.7830   16.1140 C.2    42  ASP42       0.3668
     48  OD1       23.3330   22.9180   17.2890 O.co2  42  ASP42      -0.2456
     49  OD2       23.8080   21.6450   15.5890 O.co2  42  ASP42      -0.2456
     50  N         26.9930   22.7850   13.3330 N.3    55  HIS55      -0.1241
     51  CA        27.1870   22.4190   14.7530 C.3    55  HIS55       0.1621
     52  C         28.4280   23.0390   15.3570 C.2    55  HIS55       0.2264
     53  O         28.4760   23.3480   16.5580 O.2    55  HIS55      -0.2867
     54  CB        27.2670   20.8970   14.9130 C.3    55  HIS55       0.0745
     55  CG        27.4330   20.4760   16.3240 C.ar   55  HIS55       0.0817
     56  ND1       28.6620   20.1560   16.8670 N.ar   55  HIS55      -0.2268
     57  CD2       26.5520   20.4580   17.3520 C.ar   55  HIS55       0.1154
     58  CE1       28.5000   19.8920   18.1570 C.ar   55  HIS55       0.1986
     59  NE2       27.2290   20.0850   18.4770 N.ar   55  HIS55      -0.2212
     60  N         20.3240   26.8880   17.8840 N.3   131  GLU131     -0.1245
     61  CA        21.3640   26.9810   18.9280 C.3   131  GLU131      0.1567
     62  C         22.4180   27.9860   18.5660 C.2   131  GLU131      0.2260
     63  O         23.0590   27.8780   17.5350 O.2   131  GLU131     -0.2867
     64  CB        22.0070   25.6060   19.2190 C.3   131  GLU131      0.0388
     65  CG        22.9870   25.6530   20.4290 C.3   131  GLU131      0.1160
     66  CD        23.4840   24.3380   20.9010 C.2   131  GLU131      0.3649
     67  OE1       22.9670   23.2830   20.4960 O.co2 131  GLU131     -0.2457
     68  OE2       24.4880   24.3900   21.6950 O.co2 131  GLU131     -0.2457
     69  N         25.8770   28.7390   19.0110 N.3   133  LYS133     -0.1245
     70  CA        27.0780   28.0590   19.3910 C.3   133  LYS133      0.1561
     71  C         28.2530   28.9710   19.7850 C.2   133  LYS133      0.2260
     72  O         29.2690   29.0100   19.1200 O.2   133  LYS133     -0.2867
     73  CB        27.4920   27.1020   18.2540 C.3   133  LYS133      0.0271
     74  CG        26.5660   25.9130   18.1000 C.3   133  LYS133      0.0035
     75  CD        26.7250   24.8860   19.2290 C.3   133  LYS133      0.0206
     76  CE        26.0640   23.5260   19.0420 C.3   133  LYS133      0.1093
     77  NZ        26.0730   22.6630   20.3360 N.3   133  LYS133     -0.1314
     78  N         18.1190   28.5500   21.5840 N.3   169  GLN169     -0.1245
     79  CA        18.7040   27.7210   22.6230 C.3   169  GLN169      0.1566
     80  C         20.1700   27.9840   22.7290 C.2   169  GLN169      0.2260
     81  O         20.8360   28.3710   21.7730 O.2   169  GLN169     -0.2867
     82  CB        18.4850   26.2280   22.4110 C.3   169  GLN169      0.0367
     83  CG        19.0500   25.7360   21.1050 C.3   169  GLN169      0.0905
     84  CD        18.8240   24.2550   20.7770 C.2   169  GLN169      0.2608
     85  OE1       18.6900   23.4140   21.6800 O.2   169  GLN169     -0.2717
     86  NE2       18.9370   23.9150   19.4650 N.am  169  GLN169     -0.0878
     87  N         23.8610   26.9070   25.4040 N.3   171  PHE171     -0.1241
     88  CA        24.5450   26.6130   26.6560 C.3   171  PHE171      0.1605
     89  C         25.0980   27.8690   27.3020 C.2   171  PHE171      0.2264
     90  O         25.4880   27.8380   28.5190 O.2   171  PHE171     -0.2867
     91  CB        25.7500   25.7020   26.4120 C.3   171  PHE171      0.0534
     92  CG        25.4060   24.2810   26.1610 C.ar  171  PHE171     -0.0203
     93  CD1       25.1370   23.4150   27.2050 C.ar  171  PHE171     -0.0042
     94  CD2       25.3980   23.7730   24.9050 C.ar  171  PHE171     -0.0042
     95  CE1       24.8190   22.1000   26.9740 C.ar  171  PHE171     -0.0003
     96  CE2       25.1020   22.4350   24.6890 C.ar  171  PHE171     -0.0003
     97  CZ        24.7680   21.6180   25.7330 C.ar  171  PHE171     -0.0000
     98  N         20.1250   25.1290   27.6370 N.3   190  LEU190     -0.1245
     99  CA        20.8310   23.8830   27.4880 C.3   190  LEU190      0.1561
    100  C         21.7630   23.6760   28.6670 C.2   190  LEU190      0.2260
    101  O         22.5350   24.5620   29.0340 O.2   190  LEU190     -0.2867
    102  CB        21.6420   23.8400   26.2000 C.3   190  LEU190      0.0270
    103  CG        20.8460   23.7790   24.9160 C.3   190  LEU190      0.0019
    104  CD1       21.6770   24.0910   23.6550 C.3   190  LEU190      0.0001
    105  CD2       20.2340   22.3710   24.8210 C.3   190  LEU190      0.0001
    106  N         24.3470   20.6660   30.5200 N.3   192  GLU192     -0.1245
    107  CA        25.0590   19.3590   30.4710 C.3   192  GLU192      0.1567
    108  C         25.9400   19.0450   31.6930 C.2   192  GLU192      0.2260
    109  O         26.6380   18.0480   31.6640 O.2   192  GLU192     -0.2867
    110  CB        25.8700   19.2270   29.1770 C.3   192  GLU192      0.0388
    111  CG        27.0130   20.1240   29.0510 C.3   192  GLU192      0.1160
    112  CD        27.7830   19.8960   27.7580 C.2   192  GLU192      0.3649
    113  OE1       27.5260   18.8790   27.0590 O.co2 192  GLU192     -0.2457
    114  OE2       28.6400   20.7560   27.4720 O.co2 192  GLU192     -0.2457
    115  N         17.7450   15.9530   25.4530 N.3   235  TRP235     -0.1227
    116  CA        18.5000   15.5820   24.2540 C.3   235  TRP235      0.1737
    117  C         19.6160   14.6200   24.6190 C.2   235  TRP235      0.2596
    118  O         19.9580   14.5630   25.7830 O.2   235  TRP235     -0.2718
    119  CB        19.1390   16.8480   23.6320 C.3   235  TRP235      0.0564
    120  CG        19.9370   17.6740   24.6310 C.ar  235  TRP235      0.0003
    121  CD1       19.4690   18.7190   25.3910 C.ar  235  TRP235      0.0946
    122  CD2       21.3100   17.5080   25.0130 C.ar  235  TRP235      0.0152
    123  NE1       20.4580   19.2220   26.1670 N.ar  235  TRP235     -0.2442
    124  CE2       21.6010   18.4890   25.9730 C.ar  235  TRP235      0.0810
    125  CE3       22.3410   16.6270   24.6310 C.ar  235  TRP235      0.0012
    126  CZ2       22.8750   18.5890   26.5560 C.ar  235  TRP235      0.0191
    127  CZ3       23.5980   16.7450   25.2160 C.ar  235  TRP235      0.0001
    128  CH2       23.8630   17.7380   26.1480 C.ar  235  TRP235      0.0015
    129  N         20.2010   13.9040   23.6540 N.am  236  THR236     -0.1953
    130  CA        19.6750   13.5930   22.3580 C.3   236  THR236      0.1897
    131  C         19.2870   12.1280   22.4860 C.2   236  THR236      0.2313
    132  O         20.1360   11.2630   22.7480 O.2   236  THR236     -0.2863
    133  CB        20.7310   13.8280   21.2680 C.3   236  THR236      0.1794
    134  OG1       21.0300   15.2390   21.2150 O.3   236  THR236     -0.2208
    135  CG2       20.2380   13.4010   19.8910 C.3   236  THR236      0.0378
    136  N         14.3550   15.7960   21.7260 N.3   255  ILE255     -0.1245
    137  CA        15.3100   16.0750   20.6720 C.3   255  ILE255      0.1561
    138  C         15.9650   14.7270   20.3160 C.2   255  ILE255      0.2260
    139  O         16.6310   14.1430   21.1460 O.2   255  ILE255     -0.2867
    140  CB        16.3010   17.1900   21.1040 C.3   255  ILE255      0.0252
    141  CG1       15.5790   18.5120   21.3740 C.3   255  ILE255      0.0019
    142  CG2       17.5350   17.2740   20.0900 C.3   255  ILE255      0.0019
    143  CD1       16.3430   19.3920   22.3200 C.3   255  ILE255      0.0001
@<TRIPOS>BOND
     1    25    24    2
     2    14    13    2
     3    24    23    1
     4    23    22    1
     5    23    26    1
     6    13    12    1
     7    26    27    1
     8    27    28    1
     9    45    44    2
    10    12    15    1
    11    12    11    1
    12    15    16    1
    13    50    51    1
    14     4     3    2
    15    36    35    2
    16    28    29    1
    17    44    43    1
    18    11     3   am
    19    16    17    1
    20    17    18    1
    21    42    43    1
    22     3     2    1
    23    51    54    1
    24    51    52    1
    25    33    34    1
    26    35    34    1
    27    54    55    1
    28    43    46    1
    29    52    53    2
    30    46    47    1
    31    29    30    2
    32     1     2    1
    33    49    47   ar
    34    20    19    1
    35    34    37    1
    36     2     5    1
    37    18    19    2
    38    47    48   ar
    39    55    56   ar
    40    55    57   ar
    41    19    21    1
    42    31    30    1
    43    30    32    1
    44    40    39   ar
    45    37    38    1
    46    56    58   ar
    47     5     6    1
    48    57    59   ar
    49     7     6   ar
    50     7     9   ar
    51     6     8   ar
    52    63    62    2
    53    39    38    1
    54    39    41   ar
    55    60    61    1
    56    74    73    1
    57    74    75    1
    58     9    10   ar
    59    58    59   ar
    60     8    10   ar
    61    73    70    1
    62    62    61    1
    63    61    64    1
    64    69    70    1
    65    76    75    1
    66    76    77    1
    67    72    71    2
    68    64    65    1
    69    70    71    1
    70    86    84   am
    71   135   133    1
    72   142   140    1
    73   138   137    1
    74   138   139    2
    75    65    66    1
    76    67    66   ar
    77   137   140    1
    78   137   136    1
    79    84    83    1
    80    84    85    2
    81    66    68   ar
    82   140   141    1
    83    83    82    1
    84   134   133    1
    85   133   130    1
    86   141   143    1
    87    78    79    1
    88    81    80    2
    89   130   131    1
    90   130   129    1
    91    82    79    1
    92   131   132    2
    93    79    80    1
    94   119   116    1
    95   119   120    1
    96   129   117   am
    97   104   103    1
    98   116   117    1
    99   116   115    1
   100   117   118    2
   101   120   122   ar
   102   120   121   ar
   103   125   122   ar
   104   125   127   ar
   105    96    94   ar
   106    96    97   ar
   107   105   103    1
   108    94    92   ar
   109   103   102    1
   110   122   124   ar
   111   127   128   ar
   112   121   123   ar
   113    87    88    1
   114    97    95   ar
   115   124   123   ar
   116   124   126   ar
   117   128   126   ar
   118    92    91    1
   119    92    93   ar
   120   102    99    1
   121    91    88    1
   122    88    89    1
   123    95    93   ar
   124   113   112   ar
   125    89    90    2
   126   114   112   ar
   127    99    98    1
   128    99   100    1
   129   112   111    1
   130   100   101    2
   131   111   110    1
   132   110   107    1
   133   107   106    1
   134   107   108    1
   135   109   108    2
