@<TRIPOS>MOLECULE
tmp/3ch1A00.pdb
 211 208 0 0 0
SMALL
GASTEIGER

@<TRIPOS>ATOM
      1  N         14.5800  -21.8840   33.4720 N.3    70  GLN70      -0.1245
      2  CA        14.0890  -20.6430   34.0690 C.3    70  GLN70       0.1566
      3  C         13.3840  -19.7730   33.0500 C.2    70  GLN70       0.2260
      4  O         12.3280  -19.2190   33.3510 O.2    70  GLN70      -0.2867
      5  CB        15.2170  -19.8740   34.7170 C.3    70  GLN70       0.0367
      6  CG        15.7340  -20.5580   35.9600 C.3    70  GLN70       0.0905
      7  CD        14.8350  -20.3680   37.1400 C.2    70  GLN70       0.2608
      8  OE1       14.0280  -21.2410   37.4650 O.2    70  GLN70      -0.2717
      9  NE2       14.9480  -19.2250   37.7890 N.am   70  GLN70      -0.0878
     10  N         11.7260  -20.8080   30.4320 N.3    72  GLN72      -0.1231
     11  CA        10.3800  -21.3990   30.2690 C.3    72  GLN72       0.1698
     12  C          9.4370  -21.1110   31.4450 C.2    72  GLN72       0.2592
     13  O          8.2360  -20.9120   31.2490 O.2    72  GLN72      -0.2718
     14  CB        10.4570  -22.9220   30.0450 C.3    72  GLN72       0.0381
     15  CG        11.1150  -23.3370   28.7320 C.3    72  GLN72       0.0905
     16  CD        10.4830  -22.6430   27.5250 C.2    72  GLN72       0.2608
     17  OE1        9.2410  -22.6590   27.3440 O.2    72  GLN72      -0.2717
     18  NE2       11.3310  -22.0020   26.7020 N.am   72  GLN72      -0.0878
     19  N          9.9740  -21.1180   32.6600 N.am   73  TRP73      -0.1962
     20  CA         9.1760  -20.8170   33.8590 C.3    73  TRP73       0.1771
     21  C          8.6400  -19.3750   33.7900 C.2    73  TRP73       0.2619
     22  O          7.4710  -19.1150   34.0880 O.2    73  TRP73      -0.2715
     23  CB        10.0290  -21.0300   35.1120 C.3    73  TRP73       0.0590
     24  CG         9.2930  -20.8840   36.4270 C.ar   73  TRP73       0.0006
     25  CD1        8.7710  -21.8870   37.1780 C.ar   73  TRP73       0.0946
     26  CD2        9.0180  -19.6640   37.1400 C.ar   73  TRP73       0.0152
     27  NE1        8.1760  -21.3740   38.3160 N.ar   73  TRP73      -0.2442
     28  CE2        8.3150  -20.0130   38.3140 C.ar   73  TRP73       0.0810
     29  CE3        9.2960  -18.3140   36.9000 C.ar   73  TRP73       0.0012
     30  CZ2        7.8870  -19.0630   39.2500 C.ar   73  TRP73       0.0191
     31  CZ3        8.8570  -17.3570   37.8410 C.ar   73  TRP73       0.0001
     32  CH2        8.1700  -17.7480   39.0010 C.ar   73  TRP73       0.0015
     33  N          9.5070  -18.4510   33.3840 N.am   74  PHE74      -0.1974
     34  CA         9.1580  -17.0490   33.2510 C.3    74  PHE74       0.1639
     35  C          8.1060  -16.8470   32.1760 C.2    74  PHE74       0.2290
     36  O          7.1740  -16.0650   32.3380 O.2    74  PHE74      -0.2864
     37  CB        10.4090  -16.2230   32.9690 C.3    74  PHE74       0.0560
     38  CG        11.1010  -15.7490   34.2180 C.ar   74  PHE74      -0.0200
     39  CD1       11.8660  -16.6300   34.9860 C.ar   74  PHE74      -0.0042
     40  CD2       10.9590  -14.4270   34.6490 C.ar   74  PHE74      -0.0042
     41  CE1       12.4970  -16.2010   36.1670 C.ar   74  PHE74      -0.0003
     42  CE2       11.5930  -13.9700   35.8210 C.ar   74  PHE74      -0.0003
     43  CZ        12.3570  -14.8600   36.5840 C.ar   74  PHE74      -0.0000
     44  N          5.8100  -19.0860   31.1140 N.3    76  VAL76      -0.1231
     45  CA         4.5100  -19.5630   31.5890 C.3    76  VAL76       0.1692
     46  C          3.8880  -18.6000   32.6170 C.2    76  VAL76       0.2592
     47  O          2.7050  -18.2750   32.5420 O.2    76  VAL76      -0.2718
     48  CB         4.6210  -20.9930   32.1650 C.3    76  VAL76       0.0266
     49  CG1        3.3240  -21.4130   32.8420 C.3    76  VAL76       0.0020
     50  CG2        4.9830  -22.0080   31.0550 C.3    76  VAL76       0.0020
     51  N          4.6980  -18.1380   33.5700 N.am   77  SER77      -0.1952
     52  CA         4.2640  -17.2170   34.6140 C.3    77  SER77       0.1924
     53  C          3.7600  -15.8920   34.0440 C.2    77  SER77       0.2314
     54  O          2.7420  -15.3590   34.4820 O.2    77  SER77      -0.2863
     55  CB         5.4120  -16.9820   35.5640 C.3    77  SER77       0.2116
     56  OG         5.6380  -18.1580   36.3140 O.3    77  SER77      -0.2180
     57  N          0.3360  -16.5630   32.8030 N.3    80  ASN80      -0.1225
     58  CA        -0.6080  -16.6560   33.9120 C.3    80  ASN80       0.1785
     59  C         -0.9860  -15.2790   34.4340 C.2    80  ASN80       0.2597
     60  O         -2.1520  -15.0220   34.6980 O.2    80  ASN80      -0.2718
     61  CB        -0.0320  -17.4830   35.0500 C.3    80  ASN80       0.1169
     62  CG         0.1150  -18.9490   34.6980 C.2    80  ASN80       0.2627
     63  OD1       -0.3760  -19.4110   33.6690 O.2    80  ASN80      -0.2716
     64  ND2        0.8220  -19.6870   35.5510 N.am   80  ASN80      -0.0877
     65  N          0.0040  -14.3940   34.5670 N.am   81  LEU81      -0.1980
     66  CA        -0.2140  -13.0480   35.1110 C.3    81  LEU81       0.1596
     67  C         -1.1530  -12.2010   34.2720 C.2    81  LEU81       0.2287
     68  O         -1.8470  -11.3280   34.7900 O.2    81  LEU81      -0.2864
     69  CB         1.1150  -12.3180   35.2900 C.3    81  LEU81       0.0297
     70  CG         2.0070  -12.8020   36.4350 C.3    81  LEU81       0.0022
     71  CD1        3.4290  -12.4820   36.1260 C.3    81  LEU81       0.0001
     72  CD2        1.6000  -12.1640   37.7650 C.3    81  LEU81       0.0001
     73  N         -4.3810  -13.2190   35.4210 N.3    84  TYR84      -0.1241
     74  CA        -4.6240  -12.7140   36.7880 C.3    84  TYR84       0.1605
     75  C         -5.0460  -11.2620   36.8130 C.2    84  TYR84       0.2264
     76  O         -5.9010  -10.8740   37.6170 O.2    84  TYR84      -0.2867
     77  CB        -3.4020  -12.8580   37.6870 C.3    84  TYR84       0.0534
     78  CG        -2.9320  -14.2710   37.8940 C.ar   84  TYR84      -0.0201
     79  CD1       -3.7700  -15.3610   37.6380 C.ar   84  TYR84      -0.0009
     80  CD2       -1.6410  -14.5180   38.3570 C.ar   84  TYR84      -0.0009
     81  CE1       -3.3140  -16.6770   37.8210 C.ar   84  TYR84       0.0417
     82  CE2       -1.1890  -15.7950   38.5400 C.ar   84  TYR84       0.0417
     83  CZ        -2.0210  -16.8730   38.2820 C.ar   84  TYR84       0.1957
     84  OH        -1.5330  -18.1460   38.4840 O.3    84  TYR84      -0.2866
     85  N          8.3930   -9.2370   34.1670 N.3    95  LEU95      -0.1245
     86  CA         8.4530  -10.0710   35.3550 C.3    95  LEU95       0.1561
     87  C          9.9020  -10.0920   35.8160 C.2    95  LEU95       0.2260
     88  O         10.7990  -10.3880   35.0110 O.2    95  LEU95      -0.2867
     89  CB         7.9640  -11.4890   35.0240 C.3    95  LEU95       0.0270
     90  CG         7.9730  -12.5600   36.1240 C.3    95  LEU95       0.0019
     91  CD1        7.1370  -12.1230   37.3500 C.3    95  LEU95       0.0001
     92  CD2        7.4820  -13.8900   35.5900 C.3    95  LEU95       0.0001
     93  N         12.7510  -11.1540   39.1970 N.3    97  GLN97      -0.1245
     94  CA        13.0680  -11.9350   40.3810 C.3    97  GLN97       0.1566
     95  C         14.4060  -11.5090   40.9650 C.2    97  GLN97       0.2260
     96  O         15.3360  -11.1910   40.2230 O.2    97  GLN97      -0.2867
     97  CB        13.1350  -13.4040   40.0160 C.3    97  GLN97       0.0367
     98  CG        13.1940  -14.3530   41.1990 C.3    97  GLN97       0.0905
     99  CD        13.3200  -15.7960   40.7750 C.2    97  GLN97       0.2608
    100  OE1       13.0420  -16.1530   39.6270 O.2    97  GLN97      -0.2717
    101  NE2       13.7190  -16.6440   41.7060 N.am   97  GLN97      -0.0878
    102  N          9.5930  -11.3810   43.8490 N.3   116  PHE116     -0.1241
    103  CA         9.1320  -11.2030   42.4840 C.3   116  PHE116      0.1605
    104  C          8.4180   -9.8550   42.3470 C.2   116  PHE116      0.2264
    105  O          7.7650   -9.3690   43.2880 O.2   116  PHE116     -0.2867
    106  CB         8.1790  -12.3220   42.0930 C.3   116  PHE116      0.0534
    107  CG         8.8300  -13.6770   41.9810 C.ar  116  PHE116     -0.0203
    108  CD1        8.9140  -14.5190   43.0830 C.ar  116  PHE116     -0.0042
    109  CD2        9.3500  -14.1140   40.7600 C.ar  116  PHE116     -0.0042
    110  CE1        9.4990  -15.7730   42.9770 C.ar  116  PHE116     -0.0003
    111  CE2        9.9350  -15.3570   40.6460 C.ar  116  PHE116     -0.0003
    112  CZ        10.0160  -16.1940   41.7640 C.ar  116  PHE116     -0.0000
    113  N          5.1690   -8.2450   43.7400 N.3   123  TYR123     -0.1227
    114  CA         4.1250   -9.2410   43.5180 C.3   123  TYR123      0.1736
    115  C          4.0190  -10.2290   44.6940 C.2   123  TYR123      0.2595
    116  O          2.9990  -10.2480   45.3830 O.2   123  TYR123     -0.2718
    117  CB         4.3180   -9.9570   42.1660 C.3   123  TYR123      0.0548
    118  CG         3.1870  -10.9020   41.8440 C.ar  123  TYR123     -0.0200
    119  CD1        1.9440  -10.4130   41.4410 C.ar  123  TYR123     -0.0009
    120  CD2        3.3450  -12.2710   41.9710 C.ar  123  TYR123     -0.0009
    121  CE1        0.8880  -11.2720   41.1710 C.ar  123  TYR123      0.0417
    122  CE2        2.3080  -13.1420   41.6940 C.ar  123  TYR123      0.0417
    123  CZ         1.0770  -12.6280   41.2890 C.ar  123  TYR123      0.1957
    124  OH         0.0260  -13.4820   41.0080 O.3   123  TYR123     -0.2866
    125  N          5.0590  -11.0410   44.9050 N.am  124  ILE124     -0.1980
    126  CA         5.1460  -11.9370   46.0650 C.3   124  ILE124      0.1595
    127  C          6.5960  -12.0360   46.5330 C.2   124  ILE124      0.2287
    128  O          7.4940  -11.9680   45.7040 O.2   124  ILE124     -0.2864
    129  CB         4.5540  -13.3510   45.7630 C.3   124  ILE124      0.0276
    130  CG1        4.3050  -14.1470   47.0590 C.3   124  ILE124      0.0022
    131  CG2        5.4040  -14.1390   44.7230 C.3   124  ILE124      0.0022
    132  CD1        3.3390  -15.3100   46.8700 C.3   124  ILE124      0.0001
    133  N         -1.6240  -16.8240   43.7190 N.3   143  THR143     -0.1218
    134  CA        -0.2680  -17.3710   43.7980 C.3   143  THR143      0.1862
    135  C          0.0980  -17.8510   45.2080 C.2   143  THR143      0.2287
    136  O          0.5710  -18.9710   45.3570 O.2   143  THR143     -0.2866
    137  CB         0.7880  -16.3680   43.3070 C.3   143  THR143      0.1770
    138  OG1        0.5000  -16.0160   41.9530 O.3   143  THR143     -0.2211
    139  CG2        2.1770  -16.9630   43.3750 C.3   143  THR143      0.0375
    140  N         -1.6330  -21.0440   46.1860 N.3   146  LYS146     -0.1231
    141  CA        -1.0530  -22.1380   45.4060 C.3   146  LYS146      0.1693
    142  C          0.2620  -22.6280   46.0060 C.2   146  LYS146      0.2592
    143  O          0.4910  -23.8220   46.1210 O.2   146  LYS146     -0.2718
    144  CB        -0.7800  -21.6990   43.9700 C.3   146  LYS146      0.0285
    145  CG        -1.7450  -22.2100   42.9460 C.3   146  LYS146      0.0035
    146  CD        -1.0850  -22.3460   41.5680 C.3   146  LYS146      0.0206
    147  CE        -0.3470  -21.0960   41.1220 C.3   146  LYS146      0.1093
    148  NZ        -0.0430  -21.1630   39.6590 N.3   146  LYS146     -0.1314
    149  N          1.1140  -21.6810   46.3730 N.am  147  TRP147     -0.1976
    150  CA         2.4800  -21.9530   46.7870 C.3   147  TRP147      0.1640
    151  C          2.5510  -22.4500   48.2360 C.2   147  TRP147      0.2290
    152  O          3.5200  -23.1130   48.6360 O.2   147  TRP147     -0.2864
    153  CB         3.3310  -20.6910   46.5870 C.3   147  TRP147      0.0576
    154  CG         3.7100  -20.4060   45.1440 C.ar  147  TRP147      0.0006
    155  CD1        3.1500  -20.9470   44.0170 C.ar  147  TRP147      0.0946
    156  CD2        4.7200  -19.4960   44.6870 C.ar  147  TRP147      0.0152
    157  NE1        3.7450  -20.4240   42.8890 N.ar  147  TRP147     -0.2442
    158  CE2        4.7110  -19.5330   43.2730 C.ar  147  TRP147      0.0810
    159  CE3        5.6300  -18.6500   45.3360 C.ar  147  TRP147      0.0012
    160  CZ2        5.5830  -18.7700   42.5020 C.ar  147  TRP147      0.0191
    161  CZ3        6.4940  -17.8830   44.5620 C.ar  147  TRP147      0.0001
    162  CH2        6.4670  -17.9540   43.1630 C.ar  147  TRP147      0.0015
    163  N          1.6260  -26.0350   47.4890 N.3   150  SER150     -0.1202
    164  CA         2.6550  -26.7560   46.7130 C.3   150  SER150      0.2020
    165  C          3.9260  -26.9880   47.5280 C.2   150  SER150      0.2619
    166  O          4.8200  -27.7460   47.1140 O.2   150  SER150     -0.2717
    167  CB         3.0080  -25.9820   45.4330 C.3   150  SER150      0.2103
    168  OG         3.8690  -24.8750   45.7200 O.3   150  SER150     -0.2182
    169  N          4.0150  -26.3140   48.6730 N.am  151  GLY151     -0.1942
    170  CA         5.2360  -26.2990   49.4800 C.3   151  GLY151      0.2014
    171  C          6.4130  -25.6180   48.7910 C.2   151  GLY151      0.2638
    172  O          7.5170  -26.1430   48.8100 O.2   151  GLY151     -0.2714
    173  N          6.1840  -24.4450   48.2000 N.am  152  ALA152     -0.1977
    174  CA         7.2210  -23.7490   47.4370 C.3   152  ALA152      0.1597
    175  C          8.2990  -23.2140   48.3520 C.2   152  ALA152      0.2287
    176  O          9.4800  -23.2440   48.0100 O.2   152  ALA152     -0.2864
    177  CB         6.6140  -22.6120   46.6250 C.3   152  ALA152      0.0319
    178  N         11.1080  -25.5330   49.3050 N.3   155  HIS155     -0.1226
    179  CA        11.9610  -25.6960   48.1290 C.3   155  HIS155      0.1752
    180  C         12.9980  -24.5780   48.0360 C.2   155  HIS155      0.2596
    181  O         14.1970  -24.8410   47.8300 O.2   155  HIS155     -0.2718
    182  CB        11.0990  -25.7790   46.8630 C.3   155  HIS155      0.0759
    183  CG        11.8650  -25.6510   45.5810 C.ar  155  HIS155      0.0818
    184  ND1       12.0950  -26.7190   44.7380 N.ar  155  HIS155     -0.2268
    185  CD2       12.4170  -24.5700   44.9770 C.ar  155  HIS155      0.1154
    186  CE1       12.7720  -26.3050   43.6820 C.ar  155  HIS155      0.1986
    187  NE2       12.9780  -25.0020   43.8010 N.ar  155  HIS155     -0.2212
    188  N         12.5560  -23.3340   48.2050 N.am  156  TYR156     -0.1976
    189  CA        13.4690  -22.1830   48.1040 C.3   156  TYR156      0.1639
    190  C         14.3340  -22.0210   49.3450 C.2   156  TYR156      0.2290
    191  O         15.4820  -21.5870   49.2500 O.2   156  TYR156     -0.2864
    192  CB        12.7210  -20.8690   47.8160 C.3   156  TYR156      0.0560
    193  CG        12.0480  -20.7950   46.4620 C.ar  156  TYR156     -0.0198
    194  CD1       12.7920  -20.6770   45.2870 C.ar  156  TYR156     -0.0009
    195  CD2       10.6630  -20.8250   46.3610 C.ar  156  TYR156     -0.0009
    196  CE1       12.1730  -20.5940   44.0520 C.ar  156  TYR156      0.0417
    197  CE2       10.0330  -20.7400   45.1400 C.ar  156  TYR156      0.0417
    198  CZ        10.7820  -20.6220   43.9860 C.ar  156  TYR156      0.1957
    199  OH        10.1240  -20.5440   42.7750 O.3   156  TYR156     -0.2866
    200  N         17.3630  -24.2190   48.8370 N.3   159  TYR159     -0.1241
    201  CA        18.3450  -23.5890   47.9470 C.3   159  TYR159      0.1605
    202  C         19.0920  -22.4630   48.6470 C.2   159  TYR159      0.2264
    203  O         20.3250  -22.3280   48.5240 O.2   159  TYR159     -0.2867
    204  CB        17.6950  -23.0570   46.6590 C.3   159  TYR159      0.0534
    205  CG        18.5640  -22.0270   45.9700 C.ar  159  TYR159     -0.0201
    206  CD1       19.6600  -22.4190   45.1940 C.ar  159  TYR159     -0.0009
    207  CD2       18.3250  -20.6590   46.1340 C.ar  159  TYR159     -0.0009
    208  CE1       20.4940  -21.4750   44.5850 C.ar  159  TYR159      0.0417
    209  CE2       19.1560  -19.7060   45.5300 C.ar  159  TYR159      0.0417
    210  CZ        20.2370  -20.1260   44.7600 C.ar  159  TYR159      0.1957
    211  OH        21.0490  -19.1830   44.1680 O.3   159  TYR159     -0.2866
@<TRIPOS>BOND
     1    18    16   am
     2    17    16    2
     3    16    15    1
     4    15    14    1
     5    14    11    1
     6    11    10    1
     7    11    12    1
     8    50    48    1
     9    44    45    1
    10    13    12    2
    11    12    19   am
    12    45    48    1
    13    45    46    1
    14    48    49    1
    15    35    36    2
    16    35    34    1
    17    47    46    2
    18    46    51   am
    19    19    20    1
    20    57    58    1
    21    37    34    1
    22    37    38    1
    23     3     4    2
    24     3     2    1
    25    34    33    1
    26    33    21   am
    27     1     2    1
    28    51    52    1
    29    63    62    2
    30    21    20    1
    31    21    22    2
    32    20    23    1
    33    58    59    1
    34    58    61    1
    35    53    54    2
    36    53    52    1
    37     2     5    1
    38    85    86    1
    39    38    40   ar
    40    38    39   ar
    41    67    68    2
    42    67    66    1
    43    59    65   am
    44    59    60    2
    45    65    66    1
    46    52    55    1
    47    40    42   ar
    48    62    61    1
    49    62    64   am
    50     5     6    1
    51    39    41   ar
    52    88    87    2
    53    89    86    1
    54    89    90    1
    55    66    69    1
    56    23    24    1
    57    69    70    1
    58    86    87    1
    59    73    74    1
    60    55    56    1
    61    92    90    1
    62    42    43   ar
    63     6     7    1
    64    90    91    1
    65    71    70    1
    66    41    43   ar
    67    24    26   ar
    68    24    25   ar
    69    70    72    1
    70    74    75    1
    71    74    77    1
    72    75    76    2
    73    29    26   ar
    74    29    31   ar
    75     7     8    2
    76     7     9   am
    77    26    28   ar
    78    25    27   ar
    79    79    81   ar
    80    79    78   ar
    81    77    78    1
    82    81    83   ar
    83    31    32   ar
    84    78    80   ar
    85    83    84    1
    86    83    82   ar
    87    28    27   ar
    88    28    30   ar
    89    80    82   ar
    90    32    30   ar
    91    93    94    1
    92   100    99    2
    93   148   147    1
    94    97    94    1
    95    97    98    1
    96    96    95    2
    97    94    95    1
    98   111   109   ar
    99   111   112   ar
   100   109   107   ar
   101    99    98    1
   102    99   101   am
   103   124   123    1
   104   147   146    1
   105   121   123   ar
   106   121   119   ar
   107   123   122   ar
   108   119   118   ar
   109   146   145    1
   110   122   120   ar
   111   112   110   ar
   112   118   120   ar
   113   118   117    1
   114   138   137    1
   115   107   106    1
   116   107   108   ar
   117   106   103    1
   118   117   114    1
   119   104   103    1
   120   104   105    2
   121   103   102    1
   122   160   162   ar
   123   160   158   ar
   124   199   198    1
   125   157   158   ar
   126   157   155   ar
   127   145   144    1
   128   110   108   ar
   129   162   161   ar
   130   158   156   ar
   131   137   139    1
   132   137   134    1
   133   114   113    1
   134   114   115    1
   135   186   187   ar
   136   186   184   ar
   137   133   134    1
   138   134   135    1
   139   187   185   ar
   140   144   141    1
   141   198   196   ar
   142   198   197   ar
   143   155   154   ar
   144   196   194   ar
   145   211   210    1
   146   161   159   ar
   147   208   210   ar
   148   208   206   ar
   149   156   154   ar
   150   156   159   ar
   151   115   125   am
   152   115   116    2
   153   131   129    1
   154   184   183   ar
   155   210   209   ar
   156   125   126    1
   157   185   183   ar
   158   197   195   ar
   159   154   153    1
   160   206   205   ar
   161   135   136    2
   162   194   193   ar
   163   141   142    1
   164   141   140    1
   165   167   168    1
   166   167   164    1
   167   209   207   ar
   168   183   182    1
   169   128   127    2
   170   129   126    1
   171   129   130    1
   172   205   207   ar
   173   205   204    1
   174   142   143    2
   175   142   149   am
   176   126   127    1
   177   195   193   ar
   178   149   150    1
   179   193   192    1
   180   153   150    1
   181   177   174    1
   182   204   201    1
   183   164   163    1
   184   164   165    1
   185   150   151    1
   186   182   179    1
   187   132   130    1
   188   166   165    2
   189   174   173    1
   190   174   175    1
   191   165   169   am
   192   192   189    1
   193   181   180    2
   194   201   202    1
   195   201   200    1
   196   176   175    2
   197   180   179    1
   198   180   188   am
   199   189   188    1
   200   189   190    1
   201   179   178    1
   202   173   171   am
   203   151   152    2
   204   203   202    2
   205   169   170    1
   206   171   172    2
   207   171   170    1
   208   191   190    2
