@<TRIPOS>MOLECULE
tmp/3ch4A00.pdb
 77 71 0 0 0
SMALL
GASTEIGER

@<TRIPOS>ATOM
      1  N         11.3740    5.9530   25.6060 N.3    23  GLY23      -0.1225
      2  CA        12.6270    6.5390   26.0510 C.3    23  GLY23       0.1811
      3  C         13.7810    6.4170   25.0720 C.2    23  GLY23       0.2280
      4  O         14.9360    6.6410   25.4380 O.2    23  GLY23      -0.2866
      5  N         15.6300    9.6840   24.5760 N.3    26  PHE26      -0.1241
      6  CA        16.3840    9.9910   25.7830 C.3    26  PHE26       0.1605
      7  C         17.7340    9.2830   25.6800 C.2    26  PHE26       0.2264
      8  O         18.7830    9.8630   25.9670 O.2    26  PHE26      -0.2867
      9  CB        15.6270    9.4830   27.0150 C.3    26  PHE26       0.0534
     10  CG        16.2300    9.9190   28.3260 C.ar   26  PHE26      -0.0203
     11  CD1       15.8290   11.1110   28.9310 C.ar   26  PHE26      -0.0042
     12  CD2       17.1910    9.1400   28.9560 C.ar   26  PHE26      -0.0042
     13  CE1       16.3790   11.5150   30.1490 C.ar   26  PHE26      -0.0003
     14  CE2       17.7500    9.5340   30.1740 C.ar   26  PHE26      -0.0003
     15  CZ        17.3450   10.7190   30.7710 C.ar   26  PHE26      -0.0000
     16  N          5.4810    2.5760   32.1590 N.3   132  SER132     -0.1217
     17  CA         6.3340    3.7210   31.8700 C.3   132  SER132      0.1889
     18  C          5.7740    4.4320   30.6440 C.2   132  SER132      0.2288
     19  O          5.7690    5.6610   30.5660 O.2   132  SER132     -0.2866
     20  CB         7.7740    3.2640   31.5950 C.3   132  SER132      0.2089
     21  OG         8.5960    4.3700   31.2470 O.3   132  SER132     -0.2183
     22  N          2.6880    6.3550   31.6920 N.3   135  GLN135     -0.1231
     23  CA         3.0120    7.5910   32.4100 C.3   135  GLN135      0.1698
     24  C          3.2720    8.7090   31.4100 C.2   135  GLN135      0.2592
     25  O          2.9850    9.8780   31.6810 O.2   135  GLN135     -0.2718
     26  CB         4.2640    7.4090   33.2760 C.3   135  GLN135      0.0381
     27  CG         4.1520    6.3760   34.3880 C.3   135  GLN135      0.0905
     28  CD         5.4920    6.1230   35.0580 C.2   135  GLN135      0.2608
     29  OE1        6.5070    5.9560   34.3810 O.2   135  GLN135     -0.2717
     30  NE2        5.5020    6.0890   36.3860 N.am  135  GLN135     -0.0878
     31  N          3.8240    8.3330   30.2560 N.am  136  ARG136     -0.1980
     32  CA         4.1410    9.2690   29.1770 C.3   136  ARG136      0.1597
     33  C          2.8920    9.6420   28.3850 C.2   136  ARG136      0.2287
     34  O          2.9590   10.4230   27.4330 O.2   136  ARG136     -0.2864
     35  CB         5.1710    8.6440   28.2220 C.3   136  ARG136      0.0334
     36  CG         6.5810    8.4700   28.7950 C.3   136  ARG136      0.0492
     37  CD         7.3550    9.7840   28.7850 C.3   136  ARG136      0.2205
     38  NE         7.4390   10.3500   27.4390 N.pl3 136  ARG136     -0.0865
     39  CZ         8.2350    9.8950   26.4730 C.cat 136  ARG136      0.5346
     40  NH1        9.0390    8.8600   26.6890 N.pl3 136  ARG136      0.1354
     41  NH2        8.2140   10.4700   25.2780 N.pl3 136  ARG136      0.1354
     42  N         13.7900    0.0730   29.5750 N.3   165  ASN165     -0.1240
     43  CA        13.5320    1.2580   30.3750 C.3   165  ASN165      0.1653
     44  C         12.5200    0.9030   31.4620 C.2   165  ASN165      0.2266
     45  O         11.3850    0.5380   31.1620 O.2   165  ASN165     -0.2867
     46  CB        12.9880    2.3690   29.4790 C.3   165  ASN165      0.1155
     47  CG        12.6970    3.6470   30.2380 C.2   165  ASN165      0.2627
     48  OD1       13.0040    3.7660   31.4220 O.2   165  ASN165     -0.2716
     49  ND2       12.1040    4.6150   29.5510 N.am  165  ASN165     -0.0877
     50  N         11.5190    3.0600   33.8040 N.3   167  GLY167     -0.1210
     51  CA        10.8510    4.2530   34.2950 C.3   167  GLY167      0.1956
     52  C         11.5260    4.8520   35.5220 C.2   167  GLY167      0.2612
     53  O         10.9050    5.5980   36.2850 O.2   167  GLY167     -0.2717
     54  N         12.8010    4.5250   35.7110 N.am  168  VAL168     -0.1965
     55  CA        13.5820    5.0300   36.8360 C.3   168  VAL168      0.1727
     56  C         14.8540    5.6580   36.2680 C.2   168  VAL168      0.2616
     57  O         15.6630    4.9750   35.6510 O.2   168  VAL168     -0.2715
     58  CB        13.9670    3.8880   37.8050 C.3   168  VAL168      0.0290
     59  CG1       14.7930    4.4330   38.9580 C.3   168  VAL168      0.0023
     60  CG2       12.7090    3.2120   38.3360 C.3   168  VAL168      0.0023
     61  N         15.0250    6.9580   36.4850 N.am  169  GLU169     -0.1977
     62  CA        16.1800    7.6720   35.9580 C.3   169  GLU169      0.1602
     63  C         17.5440    7.0870   36.2960 C.2   169  GLU169      0.2287
     64  O         18.3980    6.9740   35.4170 O.2   169  GLU169     -0.2864
     65  CB        16.1090    9.1460   36.3740 C.3   169  GLU169      0.0415
     66  CG        15.0000    9.8910   35.6230 C.3   169  GLU169      0.1163
     67  CD        14.5300   11.1510   36.3200 C.2   169  GLU169      0.3649
     68  OE1       15.1430   12.2240   36.1180 O.co2 169  GLU169     -0.2457
     69  OE2       13.5360   11.0570   37.0780 O.co2 169  GLU169     -0.2457
     70  N         18.2980    3.8400   34.2620 N.3   172  LEU172     -0.1245
     71  CA        18.5940    4.0800   32.8500 C.3   172  LEU172      0.1561
     72  C         19.9840    4.6860   32.6760 C.2   172  LEU172      0.2260
     73  O         20.6750    4.4050   31.6970 O.2   172  LEU172     -0.2867
     74  CB        17.5390    5.0010   32.2300 C.3   172  LEU172      0.0270
     75  CG        17.6090    5.1820   30.7080 C.3   172  LEU172      0.0019
     76  CD1       17.5780    3.8220   30.0220 C.3   172  LEU172      0.0001
     77  CD2       16.4420    6.0380   30.2390 C.3   172  LEU172      0.0001
@<TRIPOS>BOND
     1     5     6    1
     2     3     4    2
     3     3     2    1
     4    41    39    1
     5     1     2    1
     6     7     6    1
     7     7     8    2
     8     6     9    1
     9    39    40    1
    10    39    38    2
    11     9    10    1
    12    34    33    2
    13    38    37    1
    14    35    36    1
    15    35    32    1
    16    10    11   ar
    17    10    12   ar
    18    33    32    1
    19    37    36    1
    20    11    13   ar
    21    12    14   ar
    22    32    31    1
    23    46    47    1
    24    46    43    1
    25    49    47   am
    26    42    43    1
    27    76    75    1
    28    13    15   ar
    29    14    15   ar
    30    47    48    2
    31    77    75    1
    32    31    24   am
    33    43    44    1
    34    19    18    2
    35    18    17    1
    36    75    74    1
    37    45    44    2
    38    21    20    1
    39    24    25    2
    40    24    23    1
    41    20    17    1
    42    22    23    1
    43    73    72    2
    44    17    16    1
    45    74    71    1
    46    23    26    1
    47    72    71    1
    48    71    70    1
    49    26    27    1
    50    50    51    1
    51    51    52    1
    52    29    28    2
    53    27    28    1
    54    28    30   am
    55    64    63    2
    56    52    54   am
    57    52    53    2
    58    66    67    1
    59    66    65    1
    60    57    56    2
    61    54    55    1
    62    62    63    1
    63    62    65    1
    64    62    61    1
    65    68    67   ar
    66    56    61   am
    67    56    55    1
    68    67    69   ar
    69    55    58    1
    70    58    60    1
    71    58    59    1
