@<TRIPOS>MOLECULE
tmp/3ch6B01.pdb
 163 155 0 0 0
SMALL
GASTEIGER

@<TRIPOS>ATOM
      1  N         31.7940   34.2930   80.6100 N.3   112  ILE112     -0.1245
      2  CA        33.2200   34.4930   80.8760 C.3   112  ILE112      0.1561
      3  C         33.9120   33.2360   80.3760 C.2   112  ILE112      0.2260
      4  O         33.2820   32.1790   80.2570 O.2   112  ILE112     -0.2867
      5  CB        33.5600   34.7030   82.4200 C.3   112  ILE112      0.0252
      6  CG1       33.0130   33.5490   83.2700 C.3   112  ILE112      0.0019
      7  CG2       33.1930   36.1170   82.8920 C.3   112  ILE112      0.0019
      8  CD1       33.4950   33.5360   84.7110 C.3   112  ILE112      0.0001
      9  N         37.4490   29.5810   84.3860 N.3   115  THR115     -0.1218
     10  CA        38.5510   29.9620   85.2640 C.3   115  THR115      0.1862
     11  C         38.5530   29.2830   86.6180 C.2   115  THR115      0.2287
     12  O         37.4990   28.9980   87.2020 O.2   115  THR115     -0.2866
     13  CB        38.8360   31.5360   85.3230 C.3   115  THR115      0.1770
     14  OG1       38.6210   32.0650   86.6450 O.3   115  THR115     -0.2211
     15  CG2       37.9930   32.2980   84.3330 C.3   115  THR115      0.0375
     16  N         40.6960   28.8560   90.5970 N.3   117  LEU117     -0.1245
     17  CA        41.4820   29.5950   91.5490 C.3   117  LEU117      0.1561
     18  C         42.9040   29.0470   91.4790 C.2   117  LEU117      0.2260
     19  O         43.1330   27.8720   91.7620 O.2   117  LEU117     -0.2867
     20  CB        40.9410   29.4320   92.9780 C.3   117  LEU117      0.0270
     21  CG        39.4900   29.8070   93.2520 C.3   117  LEU117      0.0019
     22  CD1       39.2750   30.2990   94.6670 C.3   117  LEU117      0.0001
     23  CD2       38.9300   30.7560   92.2360 C.3   117  LEU117      0.0001
     24  N         31.8000   41.3140   89.2980 N.3   161  SER161     -0.1202
     25  CA        32.0050   40.5920   90.5550 C.3   161  SER161      0.2020
     26  C         32.5700   41.4990   91.6470 C.2   161  SER161      0.2619
     27  O         32.9930   42.6410   91.3760 O.2   161  SER161     -0.2717
     28  CB        32.9440   39.3890   90.3150 C.3   161  SER161      0.2103
     29  OG        33.5210   38.9230   91.5220 O.3   161  SER161     -0.2182
     30  N         32.5790   41.0010   92.8850 N.am  162  LEU162     -0.1965
     31  CA        33.1830   41.7690   93.9820 C.3   162  LEU162      0.1728
     32  C         34.6720   41.8750   93.6200 C.2   162  LEU162      0.2616
     33  O         35.3310   42.8780   93.8930 O.2   162  LEU162     -0.2715
     34  CB        33.0350   41.0400   95.3210 C.3   162  LEU162      0.0311
     35  CG        31.6650   41.1110   96.0070 C.3   162  LEU162      0.0022
     36  CD1       31.6560   40.2140   97.2730 C.3   162  LEU162      0.0001
     37  CD2       31.3240   42.6020   96.3280 C.3   162  LEU162      0.0001
     38  N         35.1560   40.8610   92.9110 N.am  163  ALA163     -0.1977
     39  CA        36.5250   40.8430   92.4430 C.3   163  ALA163      0.1597
     40  C         36.7360   41.8440   91.2630 C.2   163  ALA163      0.2287
     41  O         37.8380   41.9440   90.6980 O.2   163  ALA163     -0.2864
     42  CB        36.9150   39.3710   92.0540 C.3   163  ALA163      0.0319
     43  N         41.3270   40.1740   95.2090 N.3   168  TYR168     -0.1228
     44  CA        41.3350   38.8290   95.8300 C.3   168  TYR168      0.1721
     45  C         42.5250   38.1100   95.2510 C.2   168  TYR168      0.2437
     46  O         42.7880   38.2300   94.0770 O.2   168  TYR168     -0.2733
     47  CB        40.0860   37.9540   95.4700 C.3   168  TYR168      0.0547
     48  CG        38.7370   38.4070   95.9980 C.ar  168  TYR168     -0.0200
     49  CD1       38.1290   39.5380   95.5240 C.ar  168  TYR168     -0.0009
     50  CD2       38.0590   37.6690   96.9340 C.ar  168  TYR168     -0.0009
     51  CE1       36.8380   39.8820   95.9200 C.ar  168  TYR168      0.0417
     52  CE2       36.8580   38.0780   97.4350 C.ar  168  TYR168      0.0417
     53  CZ        36.2220   39.1730   96.8920 C.ar  168  TYR168      0.1957
     54  OH        34.9660   39.5130   97.2940 O.3   168  TYR168     -0.2866
     55  N         43.2290   37.3240   96.0590 N.am  169  PRO169     -0.2718
     56  CA        44.2640   36.5290   95.4120 C.3   169  PRO169      0.1535
     57  C         43.6160   35.3630   94.6160 C.2   169  PRO169      0.2598
     58  O         42.4420   35.0110   94.8270 O.2   169  PRO169     -0.2715
     59  CB        45.0510   35.9610   96.6000 C.3   169  PRO169      0.0310
     60  CG        43.9940   35.8330   97.7030 C.3   169  PRO169      0.0237
     61  CD        43.0720   37.0040   97.4970 C.3   169  PRO169      0.0939
     62  N         44.4110   34.7580   93.7340 N.am  170  MET170     -0.1964
     63  CA        44.0220   33.5600   92.9490 C.3   170  MET170      0.1736
     64  C         43.1330   33.7120   91.7150 C.2   170  MET170      0.2616
     65  O         42.7280   32.7280   91.1370 O.2   170  MET170     -0.2715
     66  CB        43.5080   32.4240   93.8570 C.3   170  MET170      0.0427
     67  CG        44.5020   32.0420   94.9350 C.3   170  MET170      0.0599
     68  SD        43.8550   30.6870   95.8550 S.3   170  MET170     -0.1393
     69  CE        42.9130   31.5110   97.0990 C.3   170  MET170      0.0692
     70  N         42.8450   34.9530   91.3430 N.am  171  VAL171     -0.1977
     71  CA        41.9520   35.2940   90.2260 C.3   171  VAL171      0.1596
     72  C         42.4620   36.5940   89.6450 C.2   171  VAL171      0.2287
     73  O         41.6790   37.4510   89.2620 O.2   171  VAL171     -0.2864
     74  CB        40.4640   35.4200   90.7070 C.3   171  VAL171      0.0276
     75  CG1       39.9660   34.0520   91.2030 C.3   171  VAL171      0.0022
     76  CG2       40.3470   36.4340   91.8470 C.3   171  VAL171      0.0022
     77  N         41.2620   37.1370   85.9280 N.3   174  TYR174     -0.1241
     78  CA        39.7780   37.2950   85.9570 C.3   174  TYR174      0.1605
     79  C         39.3730   38.6740   86.4800 C.2   174  TYR174      0.2264
     80  O         38.5860   39.3870   85.8600 O.2   174  TYR174     -0.2867
     81  CB        39.1750   36.1880   86.8430 C.3   174  TYR174      0.0534
     82  CG        37.7090   36.3460   87.2230 C.ar  174  TYR174     -0.0201
     83  CD1       36.6850   35.9430   86.3620 C.ar  174  TYR174     -0.0009
     84  CD2       37.3380   36.8690   88.4770 C.ar  174  TYR174     -0.0009
     85  CE1       35.3390   36.0370   86.7560 C.ar  174  TYR174      0.0417
     86  CE2       36.0100   37.0100   88.8360 C.ar  174  TYR174      0.0417
     87  CZ        35.0190   36.5950   87.9870 C.ar  174  TYR174      0.1957
     88  OH        33.6950   36.7460   88.3810 O.3   174  TYR174     -0.2866
     89  N         28.6060   41.0510   91.9120 N.3   206  LEU206     -0.1231
     90  CA        28.1570   39.8520   92.6100 C.3   206  LEU206      0.1693
     91  C         29.2020   39.1950   93.4990 C.2   206  LEU206      0.2593
     92  O         30.3490   39.0790   93.1100 O.2   206  LEU206     -0.2718
     93  CB        27.7550   38.8030   91.5670 C.3   206  LEU206      0.0284
     94  CG        26.8730   39.3040   90.4150 C.3   206  LEU206      0.0019
     95  CD1       26.5980   38.0930   89.4810 C.3   206  LEU206      0.0001
     96  CD2       25.5830   39.9530   90.9340 C.3   206  LEU206      0.0001
     97  N         28.7770   38.7310   94.6800 N.am  207  GLY207     -0.1942
     98  CA        29.5950   37.9720   95.5990 C.3   207  GLY207      0.2014
     99  C         29.5470   36.5380   95.0910 C.2   207  GLY207      0.2639
    100  O         29.1240   36.2660   93.9450 O.2   207  GLY207     -0.2714
    101  N         29.9630   35.6150   95.9490 N.am  208  LEU208     -0.1963
    102  CA        29.9450   34.1970   95.6110 C.3   208  LEU208      0.1728
    103  C         28.5070   33.6900   95.4030 C.2   208  LEU208      0.2616
    104  O         27.6550   33.8690   96.2870 O.2   208  LEU208     -0.2715
    105  CB        30.6400   33.3890   96.7240 C.3   208  LEU208      0.0311
    106  CG        30.7750   31.8760   96.4630 C.3   208  LEU208      0.0022
    107  CD1       31.6970   31.5730   95.2200 C.3   208  LEU208      0.0001
    108  CD2       31.2320   31.1180   97.7700 C.3   208  LEU208      0.0001
    109  N         28.2610   33.0380   94.2530 N.am  209  ILE209     -0.1977
    110  CA        26.9450   32.5030   93.8820 C.3   209  ILE209      0.1596
    111  C         27.0250   30.9730   93.7380 C.2   209  ILE209      0.2287
    112  O         27.9900   30.4360   93.2130 O.2   209  ILE209     -0.2864
    113  CB        26.3910   33.1930   92.5770 C.3   209  ILE209      0.0276
    114  CG1       26.5390   34.7290   92.6410 C.3   209  ILE209      0.0022
    115  CG2       24.9640   32.7580   92.2980 C.3   209  ILE209      0.0022
    116  CD1       25.8150   35.4100   93.8370 C.3   209  ILE209      0.0001
    117  N         29.6800   25.4670   88.6100 N.3   213  THR213     -0.1203
    118  CA        30.9670   25.9150   88.2000 C.3   213  THR213      0.1994
    119  C         31.7370   26.6310   89.3620 C.2   213  THR213      0.2617
    120  O         32.8900   26.2640   89.6520 O.2   213  THR213     -0.2717
    121  CB        30.6870   26.7510   86.9850 C.3   213  THR213      0.1784
    122  OG1       31.0200   26.0020   85.8090 O.3   213  THR213     -0.2211
    123  CG2       31.2710   28.0960   87.0390 C.3   213  THR213      0.0376
    124  N         31.0920   27.5860   90.0560 N.am  214  ALA214     -0.1979
    125  CA        31.7270   28.3000   91.1600 C.3   214  ALA214      0.1597
    126  C         31.9440   27.4230   92.3730 C.2   214  ALA214      0.2287
    127  O         33.0080   27.4460   92.9930 O.2   214  ALA214     -0.2864
    128  CB        30.9510   29.5480   91.5430 C.3   214  ALA214      0.0319
    129  N         35.0140   25.3940   91.7560 N.3   217  ALA217     -0.1231
    130  CA        36.2640   26.1270   91.7510 C.3   217  ALA217      0.1694
    131  C         36.7460   26.5490   93.1400 C.2   217  ALA217      0.2591
    132  O         37.9530   26.5580   93.4140 O.2   217  ALA217     -0.2718
    133  CB        36.1980   27.3340   90.7430 C.3   217  ALA217      0.0304
    134  N         35.8150   26.8120   94.0490 N.am  218  VAL218     -0.1980
    135  CA        36.1920   27.2670   95.3750 C.3   218  VAL218      0.1595
    136  C         36.3010   26.1840   96.4090 C.2   218  VAL218      0.2287
    137  O         36.7870   26.4410   97.4970 O.2   218  VAL218     -0.2864
    138  CB        35.3300   28.4420   95.8710 C.3   218  VAL218      0.0276
    139  CG1       35.3420   29.5610   94.8560 C.3   218  VAL218      0.0022
    140  CG2       33.8950   27.9750   96.2380 C.3   218  VAL218      0.0022
    141  N         38.9000   25.7730   99.3340 N.3   221  ILE221     -0.1231
    142  CA        39.7020   26.9900   99.3250 C.3   221  ILE221      0.1692
    143  C         38.9770   28.1270   99.9920 C.2   221  ILE221      0.2591
    144  O         39.5030   28.8010  100.8670 O.2   221  ILE221     -0.2718
    145  CB        40.0380   27.4220   97.8990 C.3   221  ILE221      0.0266
    146  CG1       40.7750   26.3050   97.1550 C.3   221  ILE221      0.0019
    147  CG2       40.8770   28.7030   97.9340 C.3   221  ILE221      0.0020
    148  CD1       40.9630   26.5770   95.6450 C.3   221  ILE221      0.0001
    149  N         37.7520   28.3320   99.5450 N.am  222  VAL222     -0.1980
    150  CA        36.9360   29.4170  100.0210 C.3   222  VAL222      0.1595
    151  C         35.8080   28.8660  100.8560 C.2   222  VAL222      0.2287
    152  O         35.0950   27.9390  100.4290 O.2   222  VAL222     -0.2864
    153  CB        36.4230   30.2780   98.8350 C.3   222  VAL222      0.0276
    154  CG1       35.8210   31.5910   99.3620 C.3   222  VAL222      0.0022
    155  CG2       37.5570   30.5470   97.8480 C.3   222  VAL222      0.0022
    156  N         32.8470   30.4500  102.3430 N.3   224  MET224     -0.1196
    157  CA        31.8140   31.4420  102.5380 C.3   224  MET224      0.1786
    158  C         30.4620   30.9400  102.0950 C.2   224  MET224      0.2306
    159  O         30.3490   30.0220  101.2940 O.2   224  MET224     -0.2863
    160  CB        32.1420   32.7880  101.8450 C.2   224  MET224      0.0070
    161  CG        33.3110   32.7930  100.8710 C.2   224  MET224      0.0282
    162  SD        33.7370   34.4430  100.1490 S.3   224  MET224     -0.1125
    163  CE        35.1970   34.8870  101.0610 C.3   224  MET224      0.0742
@<TRIPOS>BOND
     1     4     3    2
     2     3     2    1
     3     1     2    1
     4     2     5    1
     5     5     7    1
     6     5     6    1
     7     6     8    1
     8    15    13    1
     9     9    10    1
    10    10    13    1
    11    10    11    1
    12    13    14    1
    13   122   121    1
    14    80    79    2
    15    77    78    1
    16    78    79    1
    17    78    81    1
    18    83    85   ar
    19    83    82   ar
    20    11    12    2
    21    85    87   ar
    22    81    82    1
    23   121   123    1
    24   121   118    1
    25    82    84   ar
    26    87    88    1
    27    87    86   ar
    28   118   117    1
    29   118   119    1
    30    84    86   ar
    31    73    72    2
    32    24    25    1
    33   119   120    2
    34   119   124   am
    35    95    94    1
    36    72    71    1
    37   124   125    1
    38    71    74    1
    39    71    70    1
    40    28    25    1
    41    28    29    1
    42    94    96    1
    43    94    93    1
    44    25    26    1
    45    16    17    1
    46    41    40    2
    47    74    75    1
    48    74    76    1
    49   133   130    1
    50    65    64    2
    51   125   128    1
    52   125   126    1
    53    40    39    1
    54    70    64   am
    55    27    26    2
    56    18    17    1
    57    18    19    2
    58    17    20    1
    59    93    90    1
    60    26    30   am
    61    64    63    1
    62   130   129    1
    63   130   131    1
    64    89    90    1
    65    42    39    1
    66    23    21    1
    67   115   113    1
    68   126   127    2
    69    39    38    1
    70   113   114    1
    71   113   110    1
    72    90    91    1
    73   114   116    1
    74    30    31    1
    75    38    32   am
    76    63    62    1
    77    63    66    1
    78    20    21    1
    79    92    91    2
    80   131   132    2
    81   131   134   am
    82   112   111    2
    83    21    22    1
    84    91    97   am
    85    32    33    2
    86    32    31    1
    87    62    57   am
    88   111   110    1
    89    66    67    1
    90   110   109    1
    91   100    99    2
    92    31    34    1
    93   134   135    1
    94    46    45    2
    95   109   103   am
    96    57    58    2
    97    57    56    1
    98    97    98    1
    99   139   138    1
   100    67    68    1
   101    99    98    1
   102    99   101   am
   103    43    44    1
   104   107   106    1
   105    45    44    1
   106    45    55   am
   107    34    35    1
   108   135   138    1
   109   135   136    1
   110   103   102    1
   111   103   104    2
   112    56    55    1
   113    56    59    1
   114    47    44    1
   115    47    48    1
   116    49    51   ar
   117    49    48   ar
   118   102   101    1
   119   102   105    1
   120   148   146    1
   121    68    69    1
   122   138   140    1
   123    51    53   ar
   124    48    50   ar
   125    35    37    1
   126    35    36    1
   127    55    61    1
   128   136   137    2
   129   106   105    1
   130   106   108    1
   131    59    60    1
   132    53    54    1
   133    53    52   ar
   134    50    52   ar
   135   146   145    1
   136    61    60    1
   137   155   153    1
   138   145   147    1
   139   145   142    1
   140   153   154    1
   141   153   150    1
   142   142   141    1
   143   142   143    1
   144   149   143   am
   145   149   150    1
   146   143   144    2
   147   150   151    1
   148   162   161    1
   149   162   163    1
   150   152   151    2
   151   161   160    2
   152   159   158    2
   153   160   157    1
   154   158   157    1
   155   156   157    1
