@<TRIPOS>MOLECULE
tmp/3chgA00.pdb
 108 107 0 0 0
SMALL
GASTEIGER

@<TRIPOS>ATOM
      1  N         20.0520  -20.8780   16.4220 N.3     6  ILE6       -0.1245
      2  CA        18.8520  -20.4360   15.7010 C.3     6  ILE6        0.1561
      3  C         18.9940  -18.9850   15.2100 C.2     6  ILE6        0.2260
      4  O         20.1120  -18.5070   15.0260 O.2     6  ILE6       -0.2867
      5  CB        17.5480  -20.6690   16.5260 C.3     6  ILE6        0.0252
      6  CG1       17.6490  -20.0450   17.9260 C.3     6  ILE6        0.0019
      7  CG2       17.2500  -22.1590   16.6150 C.3     6  ILE6        0.0019
      8  CD1       16.3060  -19.7900   18.6100 C.3     6  ILE6        0.0001
      9  N         17.7880  -13.4330   17.7950 N.3    10  SER10      -0.1202
     10  CA        16.9290  -14.0590   18.8060 C.3    10  SER10       0.2020
     11  C         17.4820  -13.9330   20.2290 C.2    10  SER10       0.2619
     12  O         18.6970  -13.9070   20.4330 O.2    10  SER10      -0.2717
     13  CB        16.6970  -15.5330   18.4740 C.3    10  SER10       0.2103
     14  OG        17.8740  -16.2970   18.6650 O.3    10  SER10      -0.2182
     15  N         16.5740  -13.8780   21.2020 N.am   11  GLY11      -0.1942
     16  CA        16.9190  -13.7550   22.6180 C.3    11  GLY11       0.2014
     17  C         18.0070  -14.6930   23.1150 C.2    11  GLY11       0.2638
     18  O         18.9780  -14.2420   23.7330 O.2    11  GLY11      -0.2714
     19  N         17.8510  -15.9910   22.8410 N.am   12  ILE12      -0.1977
     20  CA        18.8080  -17.0140   23.2970 C.3    12  ILE12       0.1596
     21  C         20.1800  -16.8870   22.6160 C.2    12  ILE12       0.2287
     22  O         21.2070  -17.2510   23.1940 O.2    12  ILE12      -0.2864
     23  CB        18.2400  -18.4680   23.1570 C.3    12  ILE12       0.0276
     24  CG1       19.1470  -19.4790   23.8910 C.3    12  ILE12       0.0022
     25  CG2       18.0050  -18.8370   21.6830 C.3    12  ILE12       0.0022
     26  CD1       18.6410  -20.9250   23.9380 C.3    12  ILE12       0.0001
     27  N         16.1860  -25.4590   23.9550 N.3    57  TRP57      -0.1241
     28  CA        15.2350  -24.8390   24.8640 C.3    57  TRP57       0.1605
     29  C         14.0540  -25.7590   25.0940 C.2    57  TRP57       0.2264
     30  O         13.6900  -26.5470   24.2190 O.2    57  TRP57      -0.2867
     31  CB        14.7470  -23.4950   24.3190 C.3    57  TRP57       0.0550
     32  CG        13.9450  -23.5500   23.0320 C.ar   57  TRP57       0.0003
     33  CD1       12.5780  -23.5750   22.9120 C.ar   57  TRP57       0.0946
     34  CD2       14.4600  -23.5380   21.6920 C.ar   57  TRP57       0.0152
     35  NE1       12.2150  -23.5940   21.5850 N.ar   57  TRP57      -0.2442
     36  CE2       13.3480  -23.5700   20.8150 C.ar   57  TRP57       0.0810
     37  CE3       15.7520  -23.5110   21.1470 C.ar   57  TRP57       0.0012
     38  CZ2       13.4890  -23.5780   19.4250 C.ar   57  TRP57       0.0191
     39  CZ3       15.8910  -23.5180   19.7640 C.ar   57  TRP57       0.0001
     40  CH2       14.7630  -23.5530   18.9200 C.ar   57  TRP57       0.0015
     41  N          9.4640  -19.6680   16.0100 N.3   163  TRP163     -0.1241
     42  CA        10.0510  -20.7890   16.7460 C.3   163  TRP163      0.1605
     43  C          8.9420  -21.8180   16.9350 C.2   163  TRP163      0.2264
     44  O          7.7750  -21.4510   17.1040 O.2   163  TRP163     -0.2867
     45  CB        10.6190  -20.3540   18.1010 C.3   163  TRP163      0.0550
     46  CG        11.5810  -19.1870   18.0340 C.ar  163  TRP163      0.0003
     47  CD1       12.7490  -19.1210   17.3210 C.ar  163  TRP163      0.0946
     48  CD2       11.4620  -17.9280   18.7160 C.ar  163  TRP163      0.0152
     49  NE1       13.3550  -17.9000   17.5080 N.ar  163  TRP163     -0.2442
     50  CE2       12.5890  -17.1500   18.3610 C.ar  163  TRP163      0.0810
     51  CE3       10.5100  -17.3800   19.5900 C.ar  163  TRP163      0.0012
     52  CZ2       12.7900  -15.8570   18.8490 C.ar  163  TRP163      0.0191
     53  CZ3       10.7120  -16.0950   20.0740 C.ar  163  TRP163      0.0001
     54  CH2       11.8440  -15.3490   19.7000 C.ar  163  TRP163      0.0015
     55  N          7.6430  -23.8180   19.1510 N.3   165  SER165     -0.1202
     56  CA         6.7470  -23.5270   20.2590 C.3   165  SER165      0.2020
     57  C          5.7190  -22.4440   19.9420 C.2   165  SER165      0.2618
     58  O          4.5380  -22.5970   20.2450 O.2   165  SER165     -0.2717
     59  CB         7.5670  -23.1440   21.4930 C.3   165  SER165      0.2103
     60  OG         8.7400  -22.4430   21.1260 O.3   165  SER165     -0.2182
     61  N          6.1710  -21.3590   19.3230 N.am  166  GLU166     -0.1979
     62  CA         5.2850  -20.2530   18.9660 C.3   166  GLU166      0.1602
     63  C          4.6490  -20.3930   17.5690 C.2   166  GLU166      0.2287
     64  O          4.2300  -19.4020   16.9690 O.2   166  GLU166     -0.2864
     65  CB         6.0020  -18.9090   19.1200 C.3   166  GLU166      0.0415
     66  CG         6.3090  -18.5280   20.5610 C.3   166  GLU166      0.1163
     67  CD         7.6000  -19.1340   21.0830 C.2   166  GLU166      0.3649
     68  OE1        8.4050  -19.6470   20.2740 O.co2 166  GLU166     -0.2457
     69  OE2        7.8130  -19.0920   22.3130 O.co2 166  GLU166     -0.2457
     70  N          9.6990  -14.5660   25.8850 N.3   210  TRP210     -0.1241
     71  CA        10.4330  -15.3270   26.8810 C.3   210  TRP210      0.1605
     72  C         11.1460  -14.3600   27.8210 C.2   210  TRP210      0.2264
     73  O         12.1480  -13.7410   27.4510 O.2   210  TRP210     -0.2867
     74  CB        11.4360  -16.2390   26.1940 C.3   210  TRP210      0.0550
     75  CG        10.8080  -17.4080   25.5390 C.ar  210  TRP210      0.0003
     76  CD1        9.9210  -17.3910   24.5010 C.ar  210  TRP210      0.0946
     77  CD2       11.0170  -18.7810   25.8680 C.ar  210  TRP210      0.0152
     78  NE1        9.5620  -18.6710   24.1690 N.ar  210  TRP210     -0.2442
     79  CE2       10.2180  -19.5440   24.9960 C.ar  210  TRP210      0.0810
     80  CE3       11.7990  -19.4420   26.8190 C.ar  210  TRP210      0.0012
     81  CZ2       10.1820  -20.9370   25.0430 C.ar  210  TRP210      0.0191
     82  CZ3       11.7650  -20.8240   26.8630 C.ar  210  TRP210      0.0001
     83  CH2       10.9600  -21.5560   25.9830 C.ar  210  TRP210      0.0015
     84  N         15.5320  -13.8620   28.7640 N.3   214  THR214     -0.1203
     85  CA        15.7460  -14.2010   27.3540 C.3   214  THR214      0.1994
     86  C         15.5230  -13.0060   26.4310 C.2   214  THR214      0.2617
     87  O         16.3980  -12.6610   25.6500 O.2   214  THR214     -0.2717
     88  CB        14.8890  -15.4090   26.9220 C.3   214  THR214      0.1784
     89  OG1       14.9980  -16.4400   27.9090 O.3   214  THR214     -0.2211
     90  CG2       15.3420  -15.9470   25.5740 C.3   214  THR214      0.0376
     91  N         14.3600  -12.3750   26.5450 N.am  215  HIS215     -0.1975
     92  CA        14.0250  -11.2220   25.7190 C.3   215  HIS215      0.1656
     93  C         14.2920   -9.8940   26.4350 C.2   215  HIS215      0.2291
     94  O         13.9840   -8.8240   25.8990 O.2   215  HIS215     -0.2864
     95  CB        12.5650  -11.2980   25.2410 C.3   215  HIS215      0.0771
     96  CG        12.3460  -12.2220   24.0770 C.ar  215  HIS215      0.0820
     97  ND1       11.1270  -12.8070   23.8110 N.ar  215  HIS215     -0.2267
     98  CD2       13.1890  -12.6540   23.1070 C.ar  215  HIS215      0.1154
     99  CE1       11.2290  -13.5590   22.7300 C.ar  215  HIS215      0.1986
    100  NE2       12.4700  -13.4840   22.2840 N.ar  215  HIS215     -0.2212
    101  N         16.4770  -23.4000   29.0640 N.3   238  MET238     -0.1245
    102  CA        17.1890  -23.2360   27.8000 C.3   238  MET238      0.1570
    103  C         18.6980  -23.1660   28.0190 C.2   238  MET238      0.2261
    104  O         19.1620  -22.7980   29.1000 O.2   238  MET238     -0.2867
    105  CB        16.7010  -21.9880   27.0510 C.3   238  MET238      0.0387
    106  CG        17.0950  -20.6550   27.6740 C.3   238  MET238      0.0595
    107  SD        16.7660  -19.2530   26.5770 S.3   238  MET238     -0.1393
    108  CE        17.6580  -17.9540   27.4420 C.3   238  MET238      0.0692
@<TRIPOS>BOND
     1     4     3    2
     2     3     2    1
     3     2     1    1
     4     2     5    1
     5    41    42    1
     6     5     7    1
     7     5     6    1
     8    42    43    1
     9    42    45    1
    10    43    44    2
    11    64    63    2
    12    47    49   ar
    13    47    46   ar
    14    49    50   ar
    15    63    62    1
    16     9    10    1
    17     6     8    1
    18    46    45    1
    19    46    48   ar
    20    50    48   ar
    21    50    52   ar
    22    13    14    1
    23    13    10    1
    24    48    51   ar
    25    10    11    1
    26    52    54   ar
    27    40    38   ar
    28    40    39   ar
    29    62    65    1
    30    62    61    1
    31    65    66    1
    32    55    56    1
    33    61    57   am
    34    38    36   ar
    35    51    53   ar
    36    54    53   ar
    37    39    37   ar
    38    57    58    2
    39    57    56    1
    40    11    12    2
    41    11    15   am
    42    56    59    1
    43    68    67   ar
    44    66    67    1
    45    36    35   ar
    46    36    34   ar
    47    67    69   ar
    48    60    59    1
    49    37    34   ar
    50    15    16    1
    51    35    33   ar
    52    25    23    1
    53    34    32   ar
    54   100    99   ar
    55   100    98   ar
    56    21    22    2
    57    21    20    1
    58    16    17    1
    59    99    97   ar
    60    19    17   am
    61    19    20    1
    62    33    32   ar
    63    32    31    1
    64    98    96   ar
    65    17    18    2
    66    23    20    1
    67    23    24    1
    68    97    96   ar
    69    24    26    1
    70    27    28    1
    71    96    95    1
    72    78    76   ar
    73    78    79   ar
    74    30    29    2
    75    31    28    1
    76    76    75   ar
    77    28    29    1
    78    79    81   ar
    79    79    77   ar
    80    81    83   ar
    81    95    92    1
    82    75    77   ar
    83    75    74    1
    84    90    88    1
    85    87    86    2
    86    92    93    1
    87    92    91    1
    88    77    80   ar
    89    70    71    1
    90    94    93    2
    91    83    82   ar
    92    74    71    1
    93    86    91   am
    94    86    85    1
    95   107   108    1
    96   107   106    1
    97    80    82   ar
    98    71    72    1
    99    88    85    1
   100    88    89    1
   101   105   106    1
   102   105   102    1
   103    85    84    1
   104    73    72    2
   105   102   103    1
   106   102   101    1
   107   103   104    2
