@<TRIPOS>MOLECULE
tmp/3choA00.pdb
 192 186 0 0 0
SMALL
GASTEIGER

@<TRIPOS>ATOM
      1  N         35.6050   -2.4250   -8.5800 N.3   134  GLN134     -0.1245
      2  CA        35.0490   -1.8880   -7.3400 C.3   134  GLN134      0.1566
      3  C         33.8720   -2.7700   -6.9010 C.2   134  GLN134      0.2260
      4  O         32.7360   -2.5700   -7.3360 O.2   134  GLN134     -0.2867
      5  CB        34.5760   -0.4450   -7.5620 C.3   134  GLN134      0.0367
      6  CG        33.8900    0.2100   -6.3600 C.3   134  GLN134      0.0905
      7  CD        34.7360    0.1800   -5.0970 C.2   134  GLN134      0.2608
      8  OE1       34.2320   -0.1150   -4.0110 O.2   134  GLN134     -0.2717
      9  NE2       36.0250    0.4800   -5.2300 N.am  134  GLN134     -0.0878
     10  N         32.5090   -3.4730   -3.7300 N.3   136  GLN136     -0.1231
     11  CA        31.5870   -3.0980   -2.6600 C.3   136  GLN136      0.1698
     12  C         30.4130   -2.3370   -3.2820 C.2   136  GLN136      0.2592
     13  O         30.6190   -1.4870   -4.1420 O.2   136  GLN136     -0.2718
     14  CB        32.3000   -2.2250   -1.6180 C.3   136  GLN136      0.0381
     15  CG        31.5300   -2.0910   -0.3020 C.3   136  GLN136      0.0905
     16  CD        32.3230   -1.3830    0.7850 C.2   136  GLN136      0.2608
     17  OE1       33.1650   -0.5350    0.5010 O.2   136  GLN136     -0.2717
     18  NE2       32.0540   -1.7330    2.0390 N.am  136  GLN136     -0.0878
     19  N         29.1840   -2.6520   -2.8770 N.am  137  ALA137     -0.1980
     20  CA        28.8990   -3.6770   -1.8770 C.3   137  ALA137      0.1597
     21  C         28.6990   -5.0520   -2.5000 C.2   137  ALA137      0.2287
     22  O         29.2490   -6.0410   -2.0150 O.2   137  ALA137     -0.2864
     23  CB        27.6530   -3.2860   -1.0850 C.3   137  ALA137      0.0319
     24  N         34.9030    6.6730   -5.6040 N.3   267  TYR267     -0.1241
     25  CA        34.9330    7.0380   -4.1900 C.3   267  TYR267      0.1605
     26  C         36.2620    7.6630   -3.7690 C.2   267  TYR267      0.2264
     27  O         37.2360    7.6330   -4.5150 O.2   267  TYR267     -0.2867
     28  CB        34.6540    5.8070   -3.3310 C.3   267  TYR267      0.0534
     29  CG        33.3280    5.1540   -3.6230 C.ar  267  TYR267     -0.0201
     30  CD1       32.1620    5.6040   -3.0200 C.ar  267  TYR267     -0.0009
     31  CD2       33.2420    4.0860   -4.5040 C.ar  267  TYR267     -0.0009
     32  CE1       30.9460    5.0080   -3.2880 C.ar  267  TYR267      0.0417
     33  CE2       32.0340    3.4850   -4.7760 C.ar  267  TYR267      0.0417
     34  CZ        30.8910    3.9460   -4.1670 C.ar  267  TYR267      0.1957
     35  OH        29.6910    3.3360   -4.4370 O.3   267  TYR267     -0.2866
     36  N         38.1140    6.5510   -1.3890 N.3   269  GLY269     -0.1210
     37  CA        39.0100    5.4290   -1.1940 C.3   269  GLY269      0.1956
     38  C         38.2630    4.1180   -1.0630 C.2   269  GLY269      0.2612
     39  O         37.0500    4.0990   -0.8530 O.2   269  GLY269     -0.2717
     40  N         38.9910    3.0170   -1.2030 N.am  270  MET270     -0.1965
     41  CA        38.4420    1.6990   -0.9380 C.3   270  MET270      0.1736
     42  C         39.5060    0.8680   -0.2400 C.2   270  MET270      0.2616
     43  O         40.6580    0.7880   -0.6910 O.2   270  MET270     -0.2715
     44  CB        38.0110    1.0110   -2.2350 C.3   270  MET270      0.0427
     45  CG        37.4660   -0.3900   -2.0170 C.3   270  MET270      0.0599
     46  SD        35.9190   -0.3380   -1.0920 S.3   270  MET270     -0.1393
     47  CE        35.8770   -1.9960   -0.3490 C.3   270  MET270      0.0692
     48  N         39.1080    0.2530    0.8660 N.am  271  GLU271     -0.1977
     49  CA        40.0510   -0.3360    1.8030 C.3   271  GLU271      0.1602
     50  C         40.4840   -1.7490    1.3930 C.2   271  GLU271      0.2287
     51  O         40.5610   -2.6530    2.2270 O.2   271  GLU271     -0.2864
     52  CB        39.4190   -0.3740    3.2010 C.3   271  GLU271      0.0415
     53  CG        38.1820   -1.2790    3.3110 C.3   271  GLU271      0.1163
     54  CD        36.8630   -0.5700    3.0250 C.2   271  GLU271      0.3649
     55  OE1       35.8080   -1.1030    3.4370 O.co2 271  GLU271     -0.2457
     56  OE2       36.8630    0.5090    2.3890 O.co2 271  GLU271     -0.2457
     57  N         41.0360    4.7870    5.3980 N.3   296  GLU296     -0.1245
     58  CA        41.2670    3.4950    4.7600 C.3   296  GLU296      0.1567
     59  C         42.2010    2.6230    5.5990 C.2   296  GLU296      0.2260
     60  O         42.0060    1.4140    5.7090 O.2   296  GLU296     -0.2867
     61  CB        41.8400    3.6970    3.3530 C.3   296  GLU296      0.0388
     62  CG        40.9720    4.5730    2.4570 C.3   296  GLU296      0.1160
     63  CD        39.5270    4.1110    2.3860 C.2   296  GLU296      0.3649
     64  OE1       39.2660    2.9190    2.6290 O.co2 296  GLU296     -0.2457
     65  OE2       38.6490    4.9480    2.0860 O.co2 296  GLU296     -0.2457
     66  N         24.6580   -6.0990    4.7830 N.3   311  TRP311     -0.1227
     67  CA        24.8210   -4.6800    4.5290 C.3   311  TRP311      0.1737
     68  C         23.8610   -3.8330    5.3550 C.2   311  TRP311      0.2595
     69  O         24.0210   -2.6240    5.4450 O.2   311  TRP311     -0.2718
     70  CB        24.6710   -4.4030    3.0300 C.3   311  TRP311      0.0564
     71  CG        25.7660   -5.0670    2.2350 C.ar  311  TRP311      0.0003
     72  CD1       25.6320   -6.1090    1.3620 C.ar  311  TRP311      0.0946
     73  CD2       27.1730   -4.7820    2.3050 C.ar  311  TRP311      0.0152
     74  NE1       26.8690   -6.4940    0.8920 N.ar  311  TRP311     -0.2442
     75  CE2       27.8280   -5.6940    1.4560 C.ar  311  TRP311      0.0810
     76  CE3       27.9400   -3.8460    3.0040 C.ar  311  TRP311      0.0012
     77  CZ2       29.2120   -5.6980    1.2910 C.ar  311  TRP311      0.0191
     78  CZ3       29.3130   -3.8510    2.8400 C.ar  311  TRP311      0.0001
     79  CH2       29.9350   -4.7720    1.9900 C.ar  311  TRP311      0.0015
     80  N         22.8840   -4.4730    5.9940 N.am  312  ASP312     -0.1974
     81  CA        21.9930   -3.7590    6.9030 C.3   312  ASP312      0.1709
     82  C         22.7890   -3.1730    8.0690 C.2   312  ASP312      0.2293
     83  O         22.3710   -2.2000    8.6940 O.2   312  ASP312     -0.2864
     84  CB        20.9190   -4.7040    7.4490 C.3   312  ASP312      0.1436
     85  CG        19.8230   -4.9990    6.4380 C.2   312  ASP312      0.3671
     86  OD1       19.7890   -4.3610    5.3640 O.co2 312  ASP312     -0.2456
     87  OD2       18.9860   -5.8770    6.7290 O.co2 312  ASP312     -0.2456
     88  N         26.0120   -2.0740    7.9560 N.3   314  PHE314     -0.1241
     89  CA        27.1390   -1.3200    7.3930 C.3   314  PHE314      0.1605
     90  C         27.6960   -0.2710    8.3500 C.2   314  PHE314      0.2264
     91  O         28.8980    0.0070    8.3430 O.2   314  PHE314     -0.2867
     92  CB        26.6780   -0.6490    6.0950 C.3   314  PHE314      0.0534
     93  CG        27.7490    0.1210    5.3670 C.ar  314  PHE314     -0.0203
     94  CD1       28.9510   -0.4780    5.0180 C.ar  314  PHE314     -0.0042
     95  CD2       27.5220    1.4350    4.9820 C.ar  314  PHE314     -0.0042
     96  CE1       29.9100    0.2230    4.2920 C.ar  314  PHE314     -0.0003
     97  CE2       28.4710    2.1430    4.2570 C.ar  314  PHE314     -0.0003
     98  CZ        29.6690    1.5330    3.9100 C.ar  314  PHE314     -0.0000
     99  N         31.5620    1.4700    9.1550 N.3   318  GLU318     -0.1245
    100  CA        31.9100    2.8630    8.9230 C.3   318  GLU318      0.1567
    101  C         31.9670    3.7160   10.1810 C.2   318  GLU318      0.2260
    102  O         32.8200    4.5880   10.2970 O.2   318  GLU318     -0.2867
    103  CB        30.9370    3.4780    7.9130 C.3   318  GLU318      0.0388
    104  CG        31.0230    2.8200    6.5590 C.3   318  GLU318      0.1160
    105  CD        32.4430    2.7840    6.0320 C.2   318  GLU318      0.3649
    106  OE1       33.2360    3.6730    6.4070 O.co2 318  GLU318     -0.2457
    107  OE2       32.7700    1.8680    5.2540 O.co2 318  GLU318     -0.2457
    108  N         16.4620    5.5970    4.9220 N.3   362  PHE362     -0.1241
    109  CA        17.9220    5.5690    4.8160 C.3   362  PHE362      0.1605
    110  C         18.6140    6.4820    5.8270 C.2   362  PHE362      0.2264
    111  O         19.8440    6.5540    5.8530 O.2   362  PHE362     -0.2867
    112  CB        18.3730    5.9710    3.4080 C.3   362  PHE362      0.0534
    113  CG        17.8570    5.0740    2.3210 C.ar  362  PHE362     -0.0203
    114  CD1       17.3080    3.8360    2.6200 C.ar  362  PHE362     -0.0042
    115  CD2       17.9110    5.4750    0.9950 C.ar  362  PHE362     -0.0042
    116  CE1       16.8210    3.0190    1.6170 C.ar  362  PHE362     -0.0003
    117  CE2       17.4250    4.6600   -0.0130 C.ar  362  PHE362     -0.0003
    118  CZ        16.8800    3.4320    0.3000 C.ar  362  PHE362     -0.0000
    119  N         20.0630    4.2740   11.3450 N.3   365  LEU365     -0.1245
    120  CA        21.4260    3.7620   11.4620 C.3   365  LEU365      0.1561
    121  C         21.4990    2.3230   10.9610 C.2   365  LEU365      0.2260
    122  O         22.3200    1.9940   10.0980 O.2   365  LEU365     -0.2867
    123  CB        21.8930    3.8310   12.9140 C.3   365  LEU365      0.0270
    124  CG        23.3540    3.4460   13.1540 C.3   365  LEU365      0.0019
    125  CD1       24.2650    4.3970   12.3910 C.3   365  LEU365      0.0001
    126  CD2       23.6580    3.4920   14.6380 C.3   365  LEU365      0.0001
    127  N         19.6150   -0.2490    8.7110 N.3   367  VAL367     -0.1245
    128  CA        18.6450   -0.1260    7.6270 C.3   367  VAL367      0.1561
    129  C         18.1030   -1.4780    7.1830 C.2   367  VAL367      0.2260
    130  O         18.5570   -2.5260    7.6430 O.2   367  VAL367     -0.2867
    131  CB        19.2670    0.5780    6.4060 C.3   367  VAL367      0.0252
    132  CG1       19.7100    1.9860    6.7870 C.3   367  VAL367      0.0019
    133  CG2       20.4400   -0.2350    5.8850 C.3   367  VAL367      0.0019
    134  N         17.6700   -3.2860    3.6290 N.3   369  LEU369     -0.1245
    135  CA        17.9860   -3.1770    2.2130 C.3   369  LEU369      0.1561
    136  C         17.2680   -4.2070    1.3530 C.2   369  LEU369      0.2260
    137  O         17.6430   -4.4230    0.2030 O.2   369  LEU369     -0.2867
    138  CB        19.4960   -3.3000    2.0060 C.3   369  LEU369      0.0270
    139  CG        20.3030   -2.1280    2.5640 C.3   369  LEU369      0.0019
    140  CD1       21.7920   -2.4360    2.4550 C.3   369  LEU369      0.0001
    141  CD2       19.9470   -0.8560    1.8040 C.3   369  LEU369      0.0001
    142  N         21.9700   -1.2890   -2.9950 N.3   374  PRO374     -0.2102
    143  CA        22.8300   -0.6330   -2.0000 C.3   374  PRO374      0.1504
    144  C         23.4470    0.6680   -2.5110 C.2   374  PRO374      0.2575
    145  O         23.6190    1.6210   -1.7520 O.2   374  PRO374     -0.2718
    146  CB        23.8910   -1.6930   -1.6880 C.3   374  PRO374      0.0282
    147  CG        23.2140   -2.9890   -2.0090 C.3   374  PRO374      0.0208
    148  CD        22.3630   -2.6900   -3.2150 C.3   374  PRO374      0.0893
    149  N         23.7740    0.7080   -3.8000 N.am  375  ASP375     -0.1974
    150  CA        24.3720    1.9020   -4.3870 C.3   375  ASP375      0.1708
    151  C         23.4420    3.1050   -4.3180 C.2   375  ASP375      0.2293
    152  O         23.8950    4.2480   -4.2740 O.2   375  ASP375     -0.2864
    153  CB        24.7560    1.6470   -5.8450 C.3   375  ASP375      0.1436
    154  CG        25.9320    0.7080   -5.9790 C.2   375  ASP375      0.3671
    155  OD1       26.7240    0.6040   -5.0160 O.co2 375  ASP375     -0.2456
    156  OD2       26.0660    0.0770   -7.0460 O.co2 375  ASP375     -0.2456
    157  N         21.1200    3.4960   -1.8630 N.3   377  ALA377     -0.1231
    158  CA        20.9790    3.8350   -0.4510 C.3   377  ALA377      0.1694
    159  C         22.2340    4.5220    0.0960 C.2   377  ALA377      0.2592
    160  O         22.1680    5.2540    1.0870 O.2   377  ALA377     -0.2718
    161  CB        20.6740    2.5700    0.3550 C.3   377  ALA377      0.0304
    162  N         23.3730    4.2930   -0.5520 N.am  378  TYR378     -0.1976
    163  CA        24.6590    4.7640   -0.0350 C.3   378  TYR378      0.1639
    164  C         24.6850    6.2620    0.2600 C.2   378  TYR378      0.2290
    165  O         24.3180    7.0760   -0.5840 O.2   378  TYR378     -0.2864
    166  CB        25.7880    4.4300   -1.0160 C.3   378  TYR378      0.0560
    167  CG        27.1530    4.8790   -0.5330 C.ar  378  TYR378     -0.0198
    168  CD1       27.8590    4.1320    0.3990 C.ar  378  TYR378     -0.0009
    169  CD2       27.7260    6.0570   -0.9950 C.ar  378  TYR378     -0.0009
    170  CE1       29.0940    4.5430    0.8600 C.ar  378  TYR378      0.0417
    171  CE2       28.9670    6.4770   -0.5360 C.ar  378  TYR378      0.0417
    172  CZ        29.6430    5.7160    0.3910 C.ar  378  TYR378      0.1957
    173  OH        30.8720    6.1270    0.8630 O.3   378  TYR378     -0.2866
    174  N         25.4650    6.2200    7.5150 N.3   382  PRO382     -0.2102
    175  CA        26.1110    5.1990    8.3490 C.3   382  PRO382      0.1504
    176  C         27.4550    5.6720    8.9060 C.2   382  PRO382      0.2575
    177  O         27.8380    5.2980   10.0150 O.2   382  PRO382     -0.2718
    178  CB        26.2490    3.9910    7.4150 C.3   382  PRO382      0.0282
    179  CG        26.1530    4.5560    6.0280 C.3   382  PRO382      0.0208
    180  CD        25.2730    5.7730    6.1240 C.3   382  PRO382      0.0893
    181  N         28.1540    6.5060    8.1410 N.am  383  TYR383     -0.1977
    182  CA        29.4180    7.0980    8.5880 C.3   383  TYR383      0.1639
    183  C         29.2260    8.0000    9.8030 C.2   383  TYR383      0.2290
    184  O         29.8450    7.7980   10.8500 O.2   383  TYR383     -0.2864
    185  CB        30.0430    7.9310    7.4640 C.3   383  TYR383      0.0560
    186  CG        30.4940    7.1380    6.2640 C.ar  383  TYR383     -0.0198
    187  CD1       29.5730    6.6400    5.3450 C.ar  383  TYR383     -0.0009
    188  CD2       31.8430    6.8860    6.0470 C.ar  383  TYR383     -0.0009
    189  CE1       29.9860    5.9070    4.2430 C.ar  383  TYR383      0.0417
    190  CE2       32.2660    6.1590    4.9520 C.ar  383  TYR383      0.0417
    191  CZ        31.3350    5.6710    4.0530 C.ar  383  TYR383      0.1957
    192  OH        31.7610    4.9460    2.9630 O.3   383  TYR383     -0.2866
@<TRIPOS>BOND
     1     1     2    1
     2     5     2    1
     3     5     6    1
     4     2     3    1
     5     4     3    2
     6   156   154   ar
     7     6     7    1
     8   154   153    1
     9   154   155   ar
    10   153   150    1
    11    24    25    1
    12     9     7   am
    13     7     8    2
    14    33    31   ar
    15    33    34   ar
    16    27    26    2
    17    31    29   ar
    18    35    34    1
    19   150   151    1
    20   150   149    1
    21   151   152    2
    22    25    26    1
    23    25    28    1
    24    34    32   ar
    25    13    12    2
    26   149   144   am
    27    10    11    1
    28    29    28    1
    29    29    30   ar
    30    32    30   ar
    31    12    19   am
    32    12    11    1
    33   148   142    1
    34   148   147    1
    35   142   143    1
    36    19    20    1
    37    11    14    1
    38   144   143    1
    39   144   145    2
    40    21    22    2
    41    21    20    1
    42    44    45    1
    43    44    41    1
    44    45    46    1
    45   147   146    1
    46   143   146    1
    47    20    23    1
    48   157   158    1
    49    14    15    1
    50    36    37    1
    51    40    38   am
    52    40    41    1
    53    37    38    1
    54    46    47    1
    55    38    39    2
    56   166   167    1
    57   166   163    1
    58   169   171   ar
    59   169   167   ar
    60    41    42    1
    61    43    42    2
    62   165   164    2
    63   162   163    1
    64   162   159   am
    65   171   172   ar
    66   167   168   ar
    67   158   159    1
    68   158   161    1
    69    15    16    1
    70    42    48   am
    71   163   164    1
    72   117   118   ar
    73   117   115   ar
    74   159   160    2
    75   137   136    2
    76   118   116   ar
    77   172   170   ar
    78   172   173    1
    79   168   170   ar
    80    17    16    2
    81    16    18   am
    82    48    49    1
    83    74    72   ar
    84    74    75   ar
    85   115   113   ar
    86    77    75   ar
    87    77    79   ar
    88   136   135    1
    89    72    71   ar
    90    50    49    1
    91    50    51    2
    92    75    73   ar
    93   116   114   ar
    94    49    52    1
    95   141   139    1
    96    79    78   ar
    97   138   135    1
    98   138   139    1
    99    65    63   ar
   100   135   134    1
   101    71    73   ar
   102    71    70    1
   103    73    76   ar
   104   113   114   ar
   105   113   112    1
   106    63    62    1
   107    63    64   ar
   108    56    54   ar
   109   140   139    1
   110    62    61    1
   111    78    76   ar
   112   192   191    1
   113    54    53    1
   114    54    55   ar
   115    70    67    1
   116    52    53    1
   117    61    58    1
   118   112   109    1
   119    98    97   ar
   120    98    96   ar
   121   191   189   ar
   122   191   190   ar
   123   189   187   ar
   124    97    95   ar
   125    96    94   ar
   126    67    66    1
   127    67    68    1
   128    58    57    1
   129    58    59    1
   130   109   108    1
   131   109   110    1
   132   190   188   ar
   133    95    93   ar
   134    94    93   ar
   135   107   105   ar
   136   187   186   ar
   137    68    69    2
   138    68    80   am
   139    86    85   ar
   140    93    92    1
   141    59    60    2
   142   110   111    2
   143   133   131    1
   144    80    81    1
   145   179   180    1
   146   179   178    1
   147   105   106   ar
   148   105   104    1
   149   188   186   ar
   150    92    89    1
   151   180   174    1
   152   186   185    1
   153   131   132    1
   154   131   128    1
   155    85    87   ar
   156    85    84    1
   157   104   103    1
   158    81    84    1
   159    81    82    1
   160   129   128    1
   161   129   130    2
   162    89    88    1
   163    89    90    1
   164   178   175    1
   165   185   182    1
   166   174   175    1
   167   128   127    1
   168   103   100    1
   169    82    83    2
   170   181   182    1
   171   181   176   am
   172    91    90    2
   173   175   176    1
   174   182   183    1
   175   176   177    2
   176   100    99    1
   177   100   101    1
   178   183   184    2
   179   122   121    2
   180   101   102    2
   181   121   120    1
   182   119   120    1
   183   120   123    1
   184   125   124    1
   185   123   124    1
   186   124   126    1
