@<TRIPOS>MOLECULE
tmp/3chpA00.pdb
 232 229 0 0 0
SMALL
GASTEIGER

@<TRIPOS>ATOM
      1  N          6.6020   48.7220   59.8310 N.3   132  GLN132     -0.1245
      2  CA         7.3210   47.7510   60.6420 C.3   132  GLN132      0.1566
      3  C          6.3100   46.7040   61.0900 C.2   132  GLN132      0.2260
      4  O          5.6520   46.8730   62.1120 O.2   132  GLN132     -0.2867
      5  CB         7.9580   48.4460   61.8560 C.3   132  GLN132      0.0367
      6  CG         8.5850   47.4970   62.8780 C.3   132  GLN132      0.0905
      7  CD         9.8710   46.8650   62.3880 C.2   132  GLN132      0.2608
      8  OE1       10.5370   47.3890   61.4890 O.2   132  GLN132     -0.2717
      9  NE2       10.2320   45.7330   62.9790 N.am  132  GLN132     -0.0878
     10  N          6.5590   43.2490   61.7910 N.3   134  GLN134     -0.1231
     11  CA         6.8400   42.2400   62.8140 C.3   134  GLN134      0.1698
     12  C          6.4730   42.8660   64.1520 C.2   134  GLN134      0.2592
     13  O          6.7990   44.0150   64.3990 O.2   134  GLN134     -0.2718
     14  CB         8.3290   41.8470   62.8040 C.3   134  GLN134      0.0381
     15  CG         8.6400   40.5260   63.5220 C.3   134  GLN134      0.0905
     16  CD        10.0920   40.0520   63.3320 C.2   134  GLN134      0.2608
     17  OE1       10.3950   38.8560   63.4380 O.2   134  GLN134     -0.2717
     18  NE2       10.9850   40.9880   63.0580 N.am  134  GLN134     -0.0878
     19  N          5.7840   42.1160   65.0030 N.am  135  ALA135     -0.1980
     20  CA         5.4050   40.7430   64.7050 C.3   135  ALA135      0.1597
     21  C          4.0780   40.6500   63.9540 C.2   135  ALA135      0.2287
     22  O          4.0180   40.1060   62.8540 O.2   135  ALA135     -0.2864
     23  CB         5.3170   39.9550   65.9880 C.3   135  ALA135      0.0319
     24  N         13.9480   49.6170   65.9400 N.3   265  TYR265     -0.1241
     25  CA        14.9210   48.5410   66.1540 C.3   265  TYR265      0.1605
     26  C         16.2780   48.7690   65.4950 C.2   265  TYR265      0.2264
     27  O         16.4240   49.6250   64.6270 O.2   265  TYR265     -0.2867
     28  CB        14.3410   47.2090   65.6750 C.3   265  TYR265      0.0534
     29  CG        13.0890   46.7930   66.4170 C.ar  265  TYR265     -0.0201
     30  CD1       13.1710   46.0720   67.6030 C.ar  265  TYR265     -0.0009
     31  CD2       11.8220   47.1220   65.9330 C.ar  265  TYR265     -0.0009
     32  CE1       12.0310   45.6870   68.2880 C.ar  265  TYR265      0.0417
     33  CE2       10.6710   46.7390   66.6160 C.ar  265  TYR265      0.0417
     34  CZ        10.7850   46.0200   67.7930 C.ar  265  TYR265      0.1957
     35  OH         9.6580   45.6120   68.4810 O.3   265  TYR265     -0.2866
     36  N         17.7180   46.7240   63.5300 N.3   267  GLY267     -0.1210
     37  CA        17.5700   46.3210   62.1480 C.3   267  GLY267      0.1956
     38  C         16.3100   45.5110   61.9620 C.2   267  GLY267      0.2612
     39  O         15.8140   44.9180   62.9170 O.2   267  GLY267     -0.2717
     40  N         15.7930   45.5010   60.7350 N.am  268  MET268     -0.1965
     41  CA        14.6890   44.6230   60.3500 C.3   268  MET268      0.1736
     42  C         15.0520   43.9250   59.0420 C.2   268  MET268      0.2616
     43  O         15.3050   44.5800   58.0260 O.2   268  MET268     -0.2715
     44  CB        13.4020   45.4320   60.1600 C.3   268  MET268      0.0427
     45  CG        12.1840   44.5960   59.7900 C.3   268  MET268      0.0599
     46  SD        11.8820   43.2870   60.9810 S.3   268  MET268     -0.1393
     47  CE        11.0220   42.1070   59.9960 C.3   268  MET268      0.0692
     48  N         15.0640   42.5960   59.0720 N.am  269  GLU269     -0.1977
     49  CA        15.5500   41.7870   57.9550 C.3   269  GLU269      0.1602
     50  C         14.5960   41.7410   56.7490 C.2   269  GLU269      0.2287
     51  O         14.3620   40.6710   56.1760 O.2   269  GLU269     -0.2864
     52  CB        15.8190   40.3580   58.4450 C.3   269  GLU269      0.0415
     53  CG        14.5750   39.6000   58.9190 C.3   269  GLU269      0.1163
     54  CD        14.2710   39.7950   60.4030 C.2   269  GLU269      0.3649
     55  OE1       14.6120   40.8630   60.9550 O.co2 269  GLU269     -0.2457
     56  OE2       13.6860   38.8760   61.0160 O.co2 269  GLU269     -0.2457
     57  N         24.1000   40.4800   61.3010 N.3   293  HIS293     -0.1226
     58  CA        22.9360   39.8300   61.8820 C.3   293  HIS293      0.1752
     59  C         21.7880   39.8600   60.8710 C.2   293  HIS293      0.2595
     60  O         21.2060   38.8190   60.5550 O.2   293  HIS293     -0.2718
     61  CB        22.5560   40.5530   63.1850 C.3   293  HIS293      0.0759
     62  CG        21.3130   40.0290   63.8360 C.ar  293  HIS293      0.0818
     63  ND1       21.3070   39.1920   64.9310 N.ar  293  HIS293     -0.2268
     64  CD2       20.0100   40.2340   63.5200 C.ar  293  HIS293      0.1154
     65  CE1       20.0300   38.9180   65.2330 C.ar  293  HIS293      0.1986
     66  NE2       19.2110   39.5310   64.4020 N.ar  293  HIS293     -0.2212
     67  N         21.4910   41.0460   60.3400 N.am  294  GLU294     -0.1979
     68  CA        20.4300   41.1830   59.3470 C.3   294  GLU294      0.1602
     69  C         20.7060   40.3360   58.1050 C.2   294  GLU294      0.2287
     70  O         19.8000   39.6970   57.5700 O.2   294  GLU294     -0.2864
     71  CB        20.2610   42.6540   58.9470 C.3   294  GLU294      0.0415
     72  CG        19.9000   43.5790   60.1080 C.3   294  GLU294      0.1163
     73  CD        18.7740   43.0340   60.9750 C.2   294  GLU294      0.3649
     74  OE1       17.9730   42.2210   60.4820 O.co2 294  GLU294     -0.2457
     75  OE2       18.6880   43.4220   62.1590 O.co2 294  GLU294     -0.2457
     76  N         19.7530   36.7040   58.5670 N.3   297  HIS297     -0.1241
     77  CA        18.3170   36.4280   58.5200 C.3   297  HIS297      0.1621
     78  C         17.8610   36.0070   57.1210 C.2   297  HIS297      0.2264
     79  O         16.7890   35.4180   56.9570 O.2   297  HIS297     -0.2867
     80  CB        17.5170   37.6650   58.9400 C.3   297  HIS297      0.0745
     81  CG        17.2090   37.7300   60.4030 C.ar  297  HIS297      0.0817
     82  ND1       16.5980   36.7180   61.1110 N.ar  297  HIS297     -0.2268
     83  CD2       17.3980   38.7380   61.2900 C.ar  297  HIS297      0.1154
     84  CE1       16.4340   37.1340   62.3710 C.ar  297  HIS297      0.1986
     85  NE2       16.9050   38.3560   62.5250 N.ar  297  HIS297     -0.2212
     86  N          4.8860   32.6390   66.7740 N.3   309  TRP309     -0.1227
     87  CA         5.7930   33.5140   67.4900 C.3   309  TRP309      0.1737
     88  C          6.2440   32.8970   68.8130 C.2   309  TRP309      0.2595
     89  O          7.1890   33.3700   69.4330 O.2   309  TRP309     -0.2718
     90  CB         5.1240   34.8720   67.6930 C.3   309  TRP309      0.0564
     91  CG         4.8770   35.5610   66.3840 C.ar  309  TRP309      0.0003
     92  CD1        3.6650   35.8480   65.8140 C.ar  309  TRP309      0.0946
     93  CD2        5.8720   36.0180   65.4600 C.ar  309  TRP309      0.0152
     94  NE1        3.8500   36.4560   64.5940 N.ar  309  TRP309     -0.2442
     95  CE2        5.1940   36.5710   64.3540 C.ar  309  TRP309      0.0810
     96  CE3        7.2750   36.0120   65.4620 C.ar  309  TRP309      0.0012
     97  CZ2        5.8650   37.1090   63.2630 C.ar  309  TRP309      0.0191
     98  CZ3        7.9400   36.5460   64.3780 C.ar  309  TRP309      0.0001
     99  CH2        7.2350   37.0880   63.2920 C.ar  309  TRP309      0.0015
    100  N          5.5920   31.8180   69.2320 N.am  310  ASP310     -0.1974
    101  CA         6.0710   31.0740   70.3970 C.3   310  ASP310      0.1709
    102  C          7.4800   30.5090   70.1830 C.2   310  ASP310      0.2293
    103  O          8.2100   30.2370   71.1430 O.2   310  ASP310     -0.2864
    104  CB         5.1190   29.9240   70.7300 C.3   310  ASP310      0.1436
    105  CG         3.8370   30.3970   71.4140 C.2   310  ASP310      0.3671
    106  OD1        3.7310   31.5990   71.7360 O.co2 310  ASP310     -0.2456
    107  OD2        2.9440   29.5600   71.6320 O.co2 310  ASP310     -0.2456
    108  N          9.8040   31.9460   68.2670 N.3   312  PHE312     -0.1227
    109  CA        10.6330   33.0590   67.8220 C.3   312  PHE312      0.1736
    110  C         12.1260   32.8000   68.0460 C.2   312  PHE312      0.2595
    111  O         12.9640   33.2840   67.2880 O.2   312  PHE312     -0.2718
    112  CB        10.1810   34.3250   68.5630 C.3   312  PHE312      0.0547
    113  CG        10.9220   35.5770   68.1760 C.ar  312  PHE312     -0.0202
    114  CD1       11.0390   35.9580   66.8510 C.ar  312  PHE312     -0.0042
    115  CD2       11.4680   36.3980   69.1570 C.ar  312  PHE312     -0.0042
    116  CE1       11.6830   37.1260   66.5090 C.ar  312  PHE312     -0.0003
    117  CE2       12.1130   37.5650   68.8250 C.ar  312  PHE312     -0.0003
    118  CZ        12.2250   37.9370   67.5020 C.ar  312  PHE312     -0.0000
    119  N         12.4670   32.0310   69.0740 N.am  313  TRP313     -0.1976
    120  CA        13.8820   31.7940   69.3750 C.3   313  TRP313      0.1640
    121  C         14.6140   31.1250   68.2040 C.2   313  TRP313      0.2290
    122  O         15.8280   31.2750   68.0660 O.2   313  TRP313     -0.2864
    123  CB        14.0350   30.9410   70.6430 C.3   313  TRP313      0.0576
    124  CG        13.9670   29.4560   70.4130 C.ar  313  TRP313      0.0006
    125  CD1       12.8560   28.6700   70.4630 C.ar  313  TRP313      0.0946
    126  CD2       15.0660   28.5780   70.1380 C.ar  313  TRP313      0.0152
    127  NE1       13.1920   27.3580   70.2410 N.ar  313  TRP313     -0.2442
    128  CE2       14.5430   27.2730   70.0410 C.ar  313  TRP313      0.0810
    129  CE3       16.4400   28.7680   69.9650 C.ar  313  TRP313      0.0012
    130  CZ2       15.3430   26.1640   69.7810 C.ar  313  TRP313      0.0191
    131  CZ3       17.2370   27.6620   69.7030 C.ar  313  TRP313      0.0001
    132  CH2       16.6860   26.3780   69.6150 C.ar  313  TRP313      0.0015
    133  N         15.8510   34.0000   65.9590 N.3   316  GLU316     -0.1245
    134  CA        16.8640   34.8910   66.5070 C.3   316  GLU316      0.1567
    135  C         18.0780   34.1500   67.0730 C.2   316  GLU316      0.2260
    136  O         19.2100   34.5830   66.8920 O.2   316  GLU316     -0.2867
    137  CB        16.2370   35.7950   67.5770 C.3   316  GLU316      0.0388
    138  CG        15.2250   36.7850   67.0090 C.3   316  GLU316      0.1160
    139  CD        15.8150   37.6720   65.9140 C.2   316  GLU316      0.3649
    140  OE1       17.0480   37.8490   65.8740 O.co2 316  GLU316     -0.2457
    141  OE2       15.0410   38.1880   65.0870 O.co2 316  GLU316     -0.2457
    142  N          8.4640   35.1300   80.5580 N.3   360  PHE360     -0.1241
    143  CA         9.1340   35.7020   79.3970 C.3   360  PHE360      0.1605
    144  C         10.6200   35.3460   79.3200 C.2   360  PHE360      0.2264
    145  O         11.2970   35.7490   78.3660 O.2   360  PHE360     -0.2867
    146  CB         8.9950   37.2320   79.3760 C.3   360  PHE360      0.0534
    147  CG         7.5900   37.7240   79.1540 C.ar  360  PHE360     -0.0203
    148  CD1        6.5420   36.8350   78.9570 C.ar  360  PHE360     -0.0042
    149  CD2        7.3150   39.0860   79.1600 C.ar  360  PHE360     -0.0042
    150  CE1        5.2420   37.2990   78.7720 C.ar  360  PHE360     -0.0003
    151  CE2        6.0230   39.5560   78.9760 C.ar  360  PHE360     -0.0003
    152  CZ         4.9840   38.6580   78.7810 C.ar  360  PHE360     -0.0000
    153  N         12.7650   29.8970   76.9880 N.3   363  LEU363     -0.1245
    154  CA        13.1670   29.9290   75.5830 C.3   363  LEU363      0.1561
    155  C         11.9700   29.7970   74.6390 C.2   363  LEU363      0.2260
    156  O         11.8360   30.5600   73.6780 O.2   363  LEU363     -0.2867
    157  CB        14.1790   28.8130   75.2880 C.3   363  LEU363      0.0270
    158  CG        14.8670   28.9210   73.9230 C.3   363  LEU363      0.0019
    159  CD1       15.5760   30.2660   73.7930 C.3   363  LEU363      0.0001
    160  CD2       15.8630   27.7770   73.7620 C.3   363  LEU363      0.0001
    161  N          7.9820   30.2360   74.5340 N.3   365  VAL365     -0.1245
    162  CA         6.9870   30.9140   75.3550 C.3   365  VAL365      0.1561
    163  C          5.5740   30.6310   74.8470 C.2   365  VAL365      0.2260
    164  O          5.3930   29.9950   73.8130 O.2   365  VAL365     -0.2867
    165  CB         7.2240   32.4460   75.3860 C.3   365  VAL365      0.0252
    166  CG1        8.5870   32.7530   75.9810 C.3   365  VAL365      0.0019
    167  CG2        7.1360   33.0200   73.9880 C.3   365  VAL365      0.0019
    168  N          2.3120   32.8210   73.9450 N.3   367  LEU367     -0.1245
    169  CA         1.8590   34.1890   73.7750 C.3   367  LEU367      0.1561
    170  C          0.3450   34.2880   73.6320 C.2   367  LEU367      0.2260
    171  O         -0.1700   35.2400   73.0530 O.2   367  LEU367     -0.2867
    172  CB         2.5540   34.8040   72.5650 C.3   367  LEU367      0.0270
    173  CG         4.0770   34.7750   72.7430 C.3   367  LEU367      0.0019
    174  CD1        4.7660   35.4120   71.5350 C.3   367  LEU367      0.0001
    175  CD2        4.4350   35.5020   74.0370 C.3   367  LEU367      0.0001
    176  N          2.7670   40.4680   71.4830 N.3   372  PRO372     -0.2102
    177  CA         4.1620   40.0830   71.2440 C.3   372  PRO372      0.1504
    178  C          5.1710   41.2040   71.4500 C.2   372  PRO372      0.2575
    179  O          6.2970   40.9500   71.8650 O.2   372  PRO372     -0.2718
    180  CB         4.1480   39.5650   69.8020 C.3   372  PRO372      0.0282
    181  CG         2.7390   39.0480   69.6180 C.3   372  PRO372      0.0208
    182  CD         1.8830   40.0370   70.3820 C.3   372  PRO372      0.0893
    183  N          4.7790   42.4410   71.1630 N.am  373  ASP373     -0.1974
    184  CA         5.6790   43.5620   71.3850 C.3   373  ASP373      0.1708
    185  C          6.0720   43.6990   72.8610 C.2   373  ASP373      0.2293
    186  O          7.1470   44.2060   73.1780 O.2   373  ASP373     -0.2864
    187  CB         5.0410   44.8660   70.8970 C.3   373  ASP373      0.1436
    188  CG         4.9470   44.9420   69.3830 C.2   373  ASP373      0.3671
    189  OD1        5.7310   44.2580   68.6880 O.co2 373  ASP373     -0.2456
    190  OD2        4.0830   45.6910   68.8900 O.co2 373  ASP373     -0.2456
    191  N          6.3360   41.1290   75.0750 N.3   375  ALA375     -0.1231
    192  CA         7.1730   40.0260   75.5240 C.3   375  ALA375      0.1694
    193  C          8.5850   40.1510   74.9600 C.2   375  ALA375      0.2592
    194  O          9.5060   39.4680   75.4110 O.2   375  ALA375     -0.2718
    195  CB         6.5510   38.7010   75.1070 C.3   375  ALA375      0.0304
    196  N          8.7550   41.0310   73.9780 N.am  376  TYR376     -0.1962
    197  CA        10.0280   41.1440   73.2690 C.3   376  TYR376      0.1771
    198  C         11.1690   41.5060   74.2110 C.2   376  TYR376      0.2620
    199  O         11.0370   42.4060   75.0480 O.2   376  TYR376     -0.2715
    200  CB         9.9270   42.1930   72.1550 C.3   376  TYR376      0.0574
    201  CG        11.2160   42.4100   71.3820 C.ar  376  TYR376     -0.0198
    202  CD1       11.5860   41.5510   70.3520 C.ar  376  TYR376     -0.0009
    203  CD2       12.0640   43.4680   71.6880 C.ar  376  TYR376     -0.0009
    204  CE1       12.7660   41.7400   69.6520 C.ar  376  TYR376      0.0417
    205  CE2       13.2450   43.6660   70.9960 C.ar  376  TYR376      0.0417
    206  CZ        13.5910   42.7990   69.9790 C.ar  376  TYR376      0.1957
    207  OH        14.7630   42.9950   69.2820 O.3   376  TYR376     -0.2866
    208  N         12.2870   40.7940   74.0630 N.am  377  SER377     -0.1950
    209  CA        13.4920   41.0470   74.8460 C.3   377  SER377      0.1924
    210  C         14.6740   40.2860   74.2390 C.2   377  SER377      0.2314
    211  O         14.5550   39.6680   73.1790 O.2   377  SER377     -0.2863
    212  CB        13.3020   40.5900   76.2930 C.3   377  SER377      0.2116
    213  OG        13.4720   39.1880   76.4120 O.3   377  SER377     -0.2180
    214  N         15.1070   35.5270   73.7330 N.3   380  PRO380     -0.2102
    215  CA        15.1610   34.5890   72.6080 C.3   380  PRO380      0.1504
    216  C         16.4580   34.6700   71.8000 C.2   380  PRO380      0.2575
    217  O         16.9170   33.6570   71.2760 O.2   380  PRO380     -0.2718
    218  CB        13.9190   34.9350   71.7820 C.3   380  PRO380      0.0282
    219  CG        13.5440   36.3330   72.2170 C.3   380  PRO380      0.0208
    220  CD        13.9670   36.4570   73.6380 C.3   380  PRO380      0.0893
    221  N         17.0460   35.8650   71.7070 N.am  381  TYR381     -0.1977
    222  CA        18.3460   36.0440   71.0540 C.3   381  TYR381      0.1639
    223  C         19.4630   35.3170   71.8030 C.2   381  TYR381      0.2290
    224  O         20.2360   34.5660   71.2100 O.2   381  TYR381     -0.2864
    225  CB        18.7250   37.5300   70.9940 C.3   381  TYR381      0.0560
    226  CG        17.8240   38.3840   70.1390 C.ar  381  TYR381     -0.0198
    227  CD1       16.5450   38.7370   70.5690 C.ar  381  TYR381     -0.0009
    228  CD2       18.2430   38.8330   68.8990 C.ar  381  TYR381     -0.0009
    229  CE1       15.7120   39.5150   69.7690 C.ar  381  TYR381      0.0417
    230  CE2       17.4200   39.6120   68.0970 C.ar  381  TYR381      0.0417
    231  CZ        16.1590   39.9470   68.5300 C.ar  381  TYR381      0.1957
    232  OH        15.3430   40.6970   67.7040 O.3   381  TYR381     -0.2866
@<TRIPOS>BOND
     1    51    50    2
     2    50    49    1
     3    79    78    2
     4    78    77    1
     5    70    69    2
     6    49    52    1
     7    49    48    1
     8    43    42    2
     9    69    68    1
    10    52    53    1
    11    77    76    1
    12    77    80    1
    13    53    54    1
    14    80    81    1
    15    71    68    1
    16    71    72    1
    17    42    48   am
    18    42    41    1
    19    68    67    1
    20    45    44    1
    21    45    46    1
    22     1     2    1
    23    47    46    1
    24    72    73    1
    25    44    41    1
    26    67    59   am
    27    41    40    1
    28    54    55   ar
    29    54    56   ar
    30    81    82   ar
    31    81    83   ar
    32    74    73   ar
    33    60    59    2
    34     2     3    1
    35     2     5    1
    36    40    38   am
    37    59    58    1
    38    73    75   ar
    39     3     4    2
    40    82    84   ar
    41    83    85   ar
    42    57    58    1
    43     8     7    2
    44    10    11    1
    45     5     6    1
    46    58    61    1
    47    38    37    1
    48    38    39    2
    49    37    36    1
    50    84    85   ar
    51     7     6    1
    52     7     9   am
    53    14    11    1
    54    14    15    1
    55    11    12    1
    56    22    21    2
    57    18    16   am
    58    61    62    1
    59    97    99   ar
    60    97    95   ar
    61    99    98   ar
    62    16    17    2
    63    16    15    1
    64    64    62   ar
    65    64    66   ar
    66    62    63   ar
    67    21    20    1
    68    12    13    2
    69    12    19   am
    70    95    94   ar
    71    95    93   ar
    72    98    96   ar
    73    66    65   ar
    74    94    92   ar
    75    27    26    2
    76    20    19    1
    77    20    23    1
    78    63    65   ar
    79   141   139   ar
    80    93    96   ar
    81    93    91   ar
    82    26    25    1
    83    28    25    1
    84    28    29    1
    85    92    91   ar
    86   140   139   ar
    87   139   138    1
    88    31    29   ar
    89    31    33   ar
    90    24    25    1
    91   133   134    1
    92    91    90    1
    93    29    30   ar
    94   134   135    1
    95   134   137    1
    96   116   114   ar
    97   116   118   ar
    98    33    34   ar
    99    86    87    1
   100   114   113   ar
   101   136   135    2
   102   138   137    1
   103   111   110    2
   104    87    90    1
   105    87    88    1
   106   118   117   ar
   107    30    32   ar
   108   232   231    1
   109    34    32   ar
   110    34    35    1
   111   109   110    1
   112   109   108    1
   113   109   112    1
   114   110   119   am
   115   122   121    2
   116   230   231   ar
   117   230   228   ar
   118   113   112    1
   119   113   115   ar
   120   121   120    1
   121   231   229   ar
   122   189   188   ar
   123    88   100   am
   124    88    89    2
   125   117   115   ar
   126   190   188   ar
   127   228   226   ar
   128   119   120    1
   129   100   101    1
   130   207   206    1
   131   120   123    1
   132   188   187    1
   133   132   131   ar
   134   132   130   ar
   135   181   180    1
   136   181   182    1
   137   204   206   ar
   138   204   202   ar
   139   131   129   ar
   140   229   227   ar
   141   130   128   ar
   142   180   177    1
   143   129   126   ar
   144   206   205   ar
   145   128   126   ar
   146   128   127   ar
   147   126   124   ar
   148   226   227   ar
   149   226   225    1
   150   102   101    1
   151   102   103    2
   152   127   125   ar
   153   202   201   ar
   154   182   176    1
   155   101   104    1
   156   124   125   ar
   157   124   123    1
   158   104   105    1
   159   187   184    1
   160   225   222    1
   161   205   203   ar
   162   222   221    1
   163   222   223    1
   164   183   184    1
   165   183   178   am
   166   224   223    2
   167   177   178    1
   168   177   176    1
   169   217   216    2
   170   201   203   ar
   171   201   200    1
   172   184   185    1
   173   105   107   ar
   174   105   106   ar
   175   178   179    2
   176   174   173    1
   177   221   216   am
   178   218   219    1
   179   218   215    1
   180   216   215    1
   181   200   197    1
   182   219   220    1
   183   172   173    1
   184   172   169    1
   185   215   214    1
   186   173   175    1
   187   185   186    2
   188   171   170    2
   189   211   210    2
   190   197   196    1
   191   197   198    1
   192   170   169    1
   193   220   214    1
   194   156   155    2
   195   160   158    1
   196   169   168    1
   197   159   158    1
   198   164   163    2
   199   158   157    1
   200   196   193   am
   201   167   165    1
   202   208   198   am
   203   208   209    1
   204   198   199    2
   205   210   209    1
   206   161   162    1
   207   155   154    1
   208   209   212    1
   209   163   162    1
   210   193   194    2
   211   193   192    1
   212   191   192    1
   213   195   192    1
   214   157   154    1
   215   162   165    1
   216   165   166    1
   217   154   153    1
   218   212   213    1
   219   145   144    2
   220   150   152   ar
   221   150   148   ar
   222   152   151   ar
   223   148   147   ar
   224   151   149   ar
   225   147   149   ar
   226   147   146    1
   227   144   143    1
   228   146   143    1
   229   143   142    1
