@<TRIPOS>MOLECULE
tmp/3chqA00.pdb
 218 213 0 0 0
SMALL
GASTEIGER

@<TRIPOS>ATOM
      1  N          6.7070   48.9590   60.2710 N.3   132  GLN132     -0.1245
      2  CA         7.3380   47.9240   61.0740 C.3   132  GLN132      0.1566
      3  C          6.2590   46.9250   61.4770 C.2   132  GLN132      0.2260
      4  O          5.5260   47.1430   62.4430 O.2   132  GLN132     -0.2867
      5  CB         7.9870   48.5460   62.3200 C.3   132  GLN132      0.0367
      6  CG         8.5120   47.5310   63.3330 C.3   132  GLN132      0.0905
      7  CD         9.7060   46.7440   62.8280 C.2   132  GLN132      0.2608
      8  OE1       10.5760   47.2770   62.1330 O.2   132  GLN132     -0.2717
      9  NE2        9.7560   45.4650   63.1780 N.am  132  GLN132     -0.0878
     10  N          6.4830   43.3980   62.2220 N.3   134  GLN134     -0.1231
     11  CA         6.7280   42.3760   63.2440 C.3   134  GLN134      0.1698
     12  C          6.3850   42.9650   64.6170 C.2   134  GLN134      0.2592
     13  O          6.7450   44.1010   64.9060 O.2   134  GLN134     -0.2718
     14  CB         8.2010   41.9270   63.2130 C.3   134  GLN134      0.0381
     15  CG         8.4960   40.6940   64.0650 C.3   134  GLN134      0.0905
     16  CD         9.9430   40.2230   63.9680 C.2   134  GLN134      0.2608
     17  OE1       10.8610   41.0220   63.7740 O.2   134  GLN134     -0.2717
     18  NE2       10.1500   38.9150   64.1080 N.am  134  GLN134     -0.0878
     19  N          5.6830   42.2080   65.4570 N.am  135  ALA135     -0.1980
     20  CA         5.2740   40.8440   65.1490 C.3   135  ALA135      0.1597
     21  C          3.9460   40.7770   64.4100 C.2   135  ALA135      0.2287
     22  O          3.8130   40.0380   63.4340 O.2   135  ALA135     -0.2864
     23  CB         5.1850   40.0290   66.4320 C.3   135  ALA135      0.0319
     24  N         13.9310   49.6600   66.6740 N.3   265  TYR265     -0.1241
     25  CA        14.8820   48.5670   66.9030 C.3   265  TYR265      0.1605
     26  C         16.2600   48.8510   66.3130 C.2   265  TYR265      0.2264
     27  O         16.4330   49.7950   65.5440 O.2   265  TYR265     -0.2867
     28  CB        14.3420   47.2520   66.3250 C.3   265  TYR265      0.0534
     29  CG        13.0240   46.8360   66.9310 C.ar  265  TYR265     -0.0201
     30  CD1       12.9770   46.1750   68.1520 C.ar  265  TYR265     -0.0009
     31  CD2       11.8220   47.1530   66.3090 C.ar  265  TYR265     -0.0009
     32  CE1       11.7610   45.8480   68.7400 C.ar  265  TYR265      0.0417
     33  CE2       10.6100   46.8330   66.8850 C.ar  265  TYR265      0.0417
     34  CZ        10.5830   46.1830   68.1000 C.ar  265  TYR265      0.1957
     35  OH         9.3710   45.8650   68.6770 O.3   265  TYR265     -0.2866
     36  N         17.7100   46.8660   64.2280 N.3   267  GLY267     -0.1210
     37  CA        17.5370   46.5560   62.8200 C.3   267  GLY267      0.1956
     38  C         16.3180   45.6840   62.6000 C.2   267  GLY267      0.2612
     39  O         15.7540   45.1610   63.5600 O.2   267  GLY267     -0.2717
     40  N         15.9150   45.5300   61.3410 N.am  268  MET268     -0.1965
     41  CA        14.8140   44.6410   60.9800 C.3   268  MET268      0.1736
     42  C         15.1490   43.9140   59.6780 C.2   268  MET268      0.2616
     43  O         15.5060   44.5390   58.6800 O.2   268  MET268     -0.2715
     44  CB        13.5200   45.4430   60.8190 C.3   268  MET268      0.0427
     45  CG        12.3070   44.6080   60.4680 C.3   268  MET268      0.0599
     46  SD        12.0110   43.2980   61.6660 S.3   268  MET268     -0.1393
     47  CE        11.0480   42.1450   60.6690 C.3   268  MET268      0.0692
     48  N         15.0420   42.5900   59.6990 N.am  269  GLU269     -0.1977
     49  CA        15.5540   41.7590   58.6110 C.3   269  GLU269      0.1602
     50  C         14.6180   41.7190   57.3930 C.2   269  GLU269      0.2287
     51  O         14.3520   40.6520   56.8430 O.2   269  GLU269     -0.2864
     52  CB        15.8070   40.3300   59.1240 C.3   269  GLU269      0.0415
     53  CG        14.5560   39.5640   59.5730 C.3   269  GLU269      0.1163
     54  CD        14.2290   39.7480   61.0580 C.2   269  GLU269      0.3649
     55  OE1       14.6050   40.7920   61.6340 O.co2 269  GLU269     -0.2457
     56  OE2       13.5910   38.8470   61.6500 O.co2 269  GLU269     -0.2457
     57  N         23.9720   40.4060   62.2310 N.3   293  HIS293     -0.1226
     58  CA        22.7490   39.8170   62.7650 C.3   293  HIS293      0.1752
     59  C         21.6110   39.8430   61.7340 C.2   293  HIS293      0.2595
     60  O         20.9700   38.8230   61.4860 O.2   293  HIS293     -0.2718
     61  CB        22.3310   40.5670   64.0330 C.3   293  HIS293      0.0759
     62  CG        21.1050   40.0120   64.6820 C.ar  293  HIS293      0.0818
     63  ND1       21.1560   39.1310   65.7420 N.ar  293  HIS293     -0.2268
     64  CD2       19.7930   40.2020   64.4130 C.ar  293  HIS293      0.1154
     65  CE1       19.9270   38.8030   66.0980 C.ar  293  HIS293      0.1986
     66  NE2       19.0830   39.4400   65.3080 N.ar  293  HIS293     -0.2212
     67  N         21.3730   41.0030   61.1280 N.am  294  GLU294     -0.1979
     68  CA        20.3220   41.1400   60.1190 C.3   294  GLU294      0.1602
     69  C         20.6150   40.3150   58.8610 C.2   294  GLU294      0.2287
     70  O         19.6970   39.7830   58.2260 O.2   294  GLU294     -0.2864
     71  CB        20.1410   42.6160   59.7350 C.3   294  GLU294      0.0415
     72  CG        19.8390   43.5550   60.9170 C.3   294  GLU294      0.1163
     73  CD        18.6940   43.0720   61.8030 C.2   294  GLU294      0.3649
     74  OE1       17.8600   42.2710   61.3360 O.co2 294  GLU294     -0.2457
     75  OE2       18.6260   43.5020   62.9770 O.co2 294  GLU294     -0.2457
     76  N         19.6590   36.5810   59.4280 N.3   297  HIS297     -0.1241
     77  CA        18.2250   36.3290   59.3040 C.3   297  HIS297      0.1621
     78  C         17.8350   35.9130   57.8840 C.2   297  HIS297      0.2264
     79  O         16.7850   35.3070   57.6780 O.2   297  HIS297     -0.2867
     80  CB        17.4310   37.5750   59.6930 C.3   297  HIS297      0.0745
     81  CG        17.0810   37.6420   61.1450 C.ar  297  HIS297      0.0817
     82  ND1       16.5450   36.5730   61.8320 N.ar  297  HIS297     -0.2268
     83  CD2       17.1710   38.6550   62.0370 C.ar  297  HIS297      0.1154
     84  CE1       16.3200   36.9260   63.0850 C.ar  297  HIS297      0.1986
     85  NE2       16.6900   38.1840   63.2350 N.ar  297  HIS297     -0.2212
     86  N          4.5810   32.7440   67.2700 N.3   309  TRP309     -0.1227
     87  CA         5.4910   33.5850   68.0310 C.3   309  TRP309      0.1737
     88  C          5.9480   32.9190   69.3340 C.2   309  TRP309      0.2595
     89  O          6.9690   33.2930   69.9000 O.2   309  TRP309     -0.2718
     90  CB         4.8370   34.9450   68.2870 C.3   309  TRP309      0.0564
     91  CG         4.5860   35.6920   67.0070 C.ar  309  TRP309      0.0003
     92  CD1        3.3750   36.0630   66.4950 C.ar  309  TRP309      0.0946
     93  CD2        5.5710   36.1140   66.0480 C.ar  309  TRP309      0.0152
     94  NE1        3.5440   36.6870   65.2830 N.ar  309  TRP309     -0.2442
     95  CE2        4.8810   36.7310   64.9850 C.ar  309  TRP309      0.0810
     96  CE3        6.9670   36.0290   65.9870 C.ar  309  TRP309      0.0012
     97  CZ2        5.5370   37.2590   63.8740 C.ar  309  TRP309      0.0191
     98  CZ3        7.6180   36.5540   64.8810 C.ar  309  TRP309      0.0001
     99  CH2        6.9030   37.1600   63.8410 C.ar  309  TRP309      0.0015
    100  N          5.2190   31.9040   69.7890 N.am  310  ASP310     -0.1974
    101  CA         5.6670   31.1150   70.9350 C.3   310  ASP310      0.1709
    102  C          7.0660   30.5080   70.7270 C.2   310  ASP310      0.2293
    103  O          7.7800   30.2240   71.6950 O.2   310  ASP310     -0.2864
    104  CB         4.6650   29.9920   71.2300 C.3   310  ASP310      0.1436
    105  CG         3.3570   30.5080   71.8210 C.2   310  ASP310      0.3671
    106  OD1        3.2680   31.7160   72.1300 O.co2 310  ASP310     -0.2456
    107  OD2        2.4200   29.6990   71.9800 O.co2 310  ASP310     -0.2456
    108  N          9.5060   31.9300   68.8960 N.3   312  PHE312     -0.1241
    109  CA        10.3510   33.0280   68.4570 C.3   312  PHE312      0.1605
    110  C         11.8430   32.7700   68.6800 C.2   312  PHE312      0.2264
    111  O         12.6780   33.2430   67.9160 O.2   312  PHE312     -0.2867
    112  CB         9.9190   34.2970   69.1890 C.3   312  PHE312      0.0534
    113  CG        10.6630   35.5340   68.7750 C.ar  312  PHE312     -0.0203
    114  CD1       10.7660   35.8910   67.4430 C.ar  312  PHE312     -0.0042
    115  CD2       11.2300   36.3650   69.7350 C.ar  312  PHE312     -0.0042
    116  CE1       11.4190   37.0560   67.0650 C.ar  312  PHE312     -0.0003
    117  CE2       11.8830   37.5290   69.3680 C.ar  312  PHE312     -0.0003
    118  CZ        11.9790   37.8770   68.0320 C.ar  312  PHE312     -0.0000
    119  N         15.6710   33.8940   66.6790 N.3   316  GLU316     -0.1245
    120  CA        16.6700   34.7770   67.2680 C.3   316  GLU316      0.1567
    121  C         17.8940   34.0370   67.7960 C.2   316  GLU316      0.2260
    122  O         19.0240   34.4720   67.5810 O.2   316  GLU316     -0.2867
    123  CB        16.0390   35.6030   68.3920 C.3   316  GLU316      0.0388
    124  CG        14.9440   36.5350   67.9170 C.3   316  GLU316      0.1160
    125  CD        15.3760   37.3960   66.7480 C.2   316  GLU316      0.3649
    126  OE1       16.5860   37.6750   66.6240 O.co2 316  GLU316     -0.2457
    127  OE2       14.5040   37.7910   65.9480 O.co2 316  GLU316     -0.2457
    128  N          8.0430   35.1760   81.0400 N.3   360  PHE360     -0.1241
    129  CA         8.7590   35.7080   79.8840 C.3   360  PHE360      0.1605
    130  C         10.2610   35.3730   79.9150 C.2   360  PHE360      0.2264
    131  O         10.9980   35.7560   79.0030 O.2   360  PHE360     -0.2867
    132  CB         8.5810   37.2330   79.7850 C.3   360  PHE360      0.0534
    133  CG         7.1520   37.6820   79.5670 C.ar  360  PHE360     -0.0203
    134  CD1        6.1390   36.7620   79.3370 C.ar  360  PHE360     -0.0042
    135  CD2        6.8270   39.0330   79.5950 C.ar  360  PHE360     -0.0042
    136  CE1        4.8300   37.1810   79.1410 C.ar  360  PHE360     -0.0003
    137  CE2        5.5170   39.4600   79.4000 C.ar  360  PHE360     -0.0003
    138  CZ         4.5190   38.5320   79.1730 C.ar  360  PHE360     -0.0000
    139  N         12.2000   29.9470   77.5360 N.3   363  LEU363     -0.1245
    140  CA        12.6520   29.9870   76.1440 C.3   363  LEU363      0.1561
    141  C         11.4730   29.8730   75.1760 C.2   363  LEU363      0.2260
    142  O         11.3090   30.6970   74.2740 O.2   363  LEU363     -0.2867
    143  CB        13.6560   28.8590   75.8770 C.3   363  LEU363      0.0270
    144  CG        14.3720   28.9440   74.5220 C.3   363  LEU363      0.0019
    145  CD1       15.1430   30.2630   74.4320 C.3   363  LEU363      0.0001
    146  CD2       15.3140   27.7560   74.3510 C.3   363  LEU363      0.0001
    147  N          7.5930   30.3380   74.9250 N.3   365  VAL365     -0.1245
    148  CA         6.6200   31.1030   75.7070 C.3   365  VAL365      0.1561
    149  C          5.1760   30.8480   75.2740 C.2   365  VAL365      0.2260
    150  O          4.9250   30.1840   74.2660 O.2   365  VAL365     -0.2867
    151  CB         6.8760   32.6160   75.6050 C.3   365  VAL365      0.0252
    152  CG1        8.2750   32.9430   76.1070 C.3   365  VAL365      0.0019
    153  CG2        6.6750   33.0790   74.1690 C.3   365  VAL365      0.0019
    154  N          1.9450   33.1480   74.4410 N.3   367  LEU367     -0.1245
    155  CA         1.5060   34.5200   74.2560 C.3   367  LEU367      0.1561
    156  C         -0.0110   34.6570   74.1760 C.2   367  LEU367      0.2260
    157  O         -0.5230   35.6450   73.6510 O.2   367  LEU367     -0.2867
    158  CB         2.1560   35.1060   73.0030 C.3   367  LEU367      0.0270
    159  CG         3.6810   35.2170   73.1240 C.3   367  LEU367      0.0019
    160  CD1        4.2770   35.7820   71.8420 C.3   367  LEU367      0.0001
    161  CD2        4.0240   36.0980   74.3100 C.3   367  LEU367      0.0001
    162  N          2.4580   40.9420   71.9940 N.3   372  PRO372     -0.2102
    163  CA         3.8410   40.5800   71.6570 C.3   372  PRO372      0.1504
    164  C          4.8570   41.6890   71.9380 C.2   372  PRO372      0.2575
    165  O          5.9580   41.4220   72.4180 O.2   372  PRO372     -0.2718
    166  CB         3.7660   40.2340   70.1680 C.3   372  PRO372      0.0282
    167  CG         2.3490   39.7590   69.9790 C.3   372  PRO372      0.0208
    168  CD         1.5300   40.6560   70.8840 C.3   372  PRO372      0.0893
    169  N          4.4830   42.9300   71.6480 N.am  373  ASP373     -0.1974
    170  CA         5.3600   44.0710   71.9010 C.3   373  ASP373      0.1708
    171  C          5.6580   44.2800   73.3810 C.2   373  ASP373      0.2293
    172  O          6.6320   44.9400   73.7350 O.2   373  ASP373     -0.2864
    173  CB         4.7470   45.3510   71.3310 C.3   373  ASP373      0.1436
    174  CG         4.6930   45.3500   69.8190 C.2   373  ASP373      0.3671
    175  OD1        5.5480   44.6910   69.1800 O.co2 373  ASP373     -0.2456
    176  OD2        3.7890   46.0130   69.2690 O.co2 373  ASP373     -0.2456
    177  N          5.8280   41.5470   75.5400 N.3   375  ALA375     -0.1231
    178  CA         6.6320   40.3970   75.9430 C.3   375  ALA375      0.1694
    179  C          8.0830   40.5030   75.4480 C.2   375  ALA375      0.2592
    180  O          8.9920   39.9150   76.0280 O.2   375  ALA375     -0.2718
    181  CB         5.9930   39.1120   75.4200 C.3   375  ALA375      0.0304
    182  N          8.2910   41.2600   74.3770 N.am  376  TYR376     -0.1962
    183  CA         9.5950   41.3310   73.7190 C.3   376  TYR376      0.1771
    184  C         10.7460   41.7020   74.6630 C.2   376  TYR376      0.2620
    185  O         10.6410   42.6420   75.4520 O.2   376  TYR376     -0.2715
    186  CB         9.5360   42.3380   72.5720 C.3   376  TYR376      0.0574
    187  CG        10.8450   42.5080   71.8430 C.ar  376  TYR376     -0.0198
    188  CD1       11.1800   41.6740   70.7790 C.ar  376  TYR376     -0.0009
    189  CD2       11.7530   43.4940   72.2210 C.ar  376  TYR376     -0.0009
    190  CE1       12.3840   41.8160   70.1120 C.ar  376  TYR376      0.0417
    191  CE2       12.9590   43.6400   71.5590 C.ar  376  TYR376      0.0417
    192  CZ        13.2670   42.7990   70.5050 C.ar  376  TYR376      0.1957
    193  OH        14.4580   42.9490   69.8310 O.3   376  TYR376     -0.2866
    194  N         11.8450   40.9590   74.5560 N.am  377  SER377     -0.1950
    195  CA        13.0470   41.2010   75.3500 C.3   377  SER377      0.1924
    196  C         14.2280   40.4290   74.7600 C.2   377  SER377      0.2314
    197  O         14.1010   39.7460   73.7450 O.2   377  SER377     -0.2863
    198  CB        12.8380   40.7460   76.7950 C.3   377  SER377      0.2116
    199  OG        12.9220   39.3310   76.9010 O.3   377  SER377     -0.2180
    200  N         14.7270   35.6190   74.3700 N.3   380  PRO380     -0.2102
    201  CA        14.8120   34.6290   73.2870 C.3   380  PRO380      0.1504
    202  C         16.1360   34.6960   72.5140 C.2   380  PRO380      0.2575
    203  O         16.6220   33.6790   72.0240 O.2   380  PRO380     -0.2718
    204  CB        13.5970   34.9380   72.4020 C.3   380  PRO380      0.0282
    205  CG        13.2110   36.3490   72.7440 C.3   380  PRO380      0.0208
    206  CD        13.6000   36.5520   74.1900 C.3   380  PRO380      0.0893
    207  N         16.7150   35.8920   72.4160 N.am  381  TYR381     -0.1977
    208  CA        18.0160   36.0620   71.7730 C.3   381  TYR381      0.1639
    209  C         19.1080   35.3290   72.5530 C.2   381  TYR381      0.2290
    210  O         19.8600   34.5390   71.9870 O.2   381  TYR381     -0.2864
    211  CB        18.3930   37.5470   71.6840 C.3   381  TYR381      0.0560
    212  CG        17.5170   38.3750   70.7710 C.ar  381  TYR381     -0.0198
    213  CD1       16.2430   38.7650   71.1650 C.ar  381  TYR381     -0.0009
    214  CD2       17.9690   38.7810   69.5190 C.ar  381  TYR381     -0.0009
    215  CE1       15.4420   39.5360   70.3400 C.ar  381  TYR381      0.0417
    216  CE2       17.1740   39.5560   68.6870 C.ar  381  TYR381      0.0417
    217  CZ        15.9100   39.9300   69.1030 C.ar  381  TYR381      0.1957
    218  OH        15.1090   40.7000   68.2820 O.3   381  TYR381     -0.2866
@<TRIPOS>BOND
     1    51    50    2
     2    50    49    1
     3    79    78    2
     4    78    77    1
     5    70    69    2
     6    49    52    1
     7    49    48    1
     8    43    42    2
     9    69    68    1
    10    52    53    1
    11    77    76    1
    12    77    80    1
    13    53    54    1
    14    42    48   am
    15    42    41    1
    16    80    81    1
    17    71    68    1
    18    71    72    1
    19    68    67    1
    20     1     2    1
    21    45    44    1
    22    45    46    1
    23    47    46    1
    24    44    41    1
    25    72    73    1
    26    41    40    1
    27    54    55   ar
    28    54    56   ar
    29     2     3    1
    30     2     5    1
    31    67    59   am
    32    81    82   ar
    33    81    83   ar
    34    74    73   ar
    35    40    38   am
    36     3     4    2
    37    60    59    2
    38    59    58    1
    39    73    75   ar
    40    82    84   ar
    41    83    85   ar
    42     8     7    2
    43    10    11    1
    44    57    58    1
    45     5     6    1
    46    38    37    1
    47    38    39    2
    48    58    61    1
    49    37    36    1
    50     7     9   am
    51     7     6    1
    52    84    85   ar
    53    14    11    1
    54    14    15    1
    55    11    12    1
    56    22    21    2
    57    17    16    2
    58    99    97   ar
    59    99    98   ar
    60    97    95   ar
    61    16    15    1
    62    16    18   am
    63    61    62    1
    64    21    20    1
    65    64    62   ar
    66    64    66   ar
    67    12    13    2
    68    12    19   am
    69    62    63   ar
    70    98    96   ar
    71    95    94   ar
    72    95    93   ar
    73    20    19    1
    74    20    23    1
    75    94    92   ar
    76    66    65   ar
    77    27    26    2
    78    63    65   ar
    79   127   125   ar
    80    96    93   ar
    81    93    91   ar
    82    31    33   ar
    83    31    29   ar
    84    26    25    1
    85    28    25    1
    86    28    29    1
    87    92    91   ar
    88   126   125   ar
    89    24    25    1
    90   119   120    1
    91   125   124    1
    92    33    34   ar
    93    29    30   ar
    94    91    90    1
    95   116   114   ar
    96   116   118   ar
    97   120   121    1
    98   120   123    1
    99    86    87    1
   100   114   113   ar
   101   122   121    2
   102   111   110    2
   103   124   123    1
   104    87    90    1
   105    87    88    1
   106   118   117   ar
   107    34    35    1
   108    34    32   ar
   109    30    32   ar
   110   218   217    1
   111   109   110    1
   112   109   108    1
   113   109   112    1
   114   216   217   ar
   115   216   214   ar
   116   113   112    1
   117   113   115   ar
   118   217   215   ar
   119   175   174   ar
   120   176   174   ar
   121    88   100   am
   122    88    89    2
   123   117   115   ar
   124   214   212   ar
   125   100   101    1
   126   174   173    1
   127   193   192    1
   128   167   166    1
   129   167   168    1
   130   190   192   ar
   131   190   188   ar
   132   166   163    1
   133   215   213   ar
   134   192   191   ar
   135   102   101    1
   136   102   103    2
   137   212   213   ar
   138   212   211    1
   139   188   187   ar
   140   168   162    1
   141   101   104    1
   142   104   105    1
   143   173   170    1
   144   191   189   ar
   145   169   170    1
   146   169   164   am
   147   163   164    1
   148   163   162    1
   149   211   208    1
   150   208   207    1
   151   208   209    1
   152   105   107   ar
   153   105   106   ar
   154   160   159    1
   155   187   189   ar
   156   187   186    1
   157   170   171    1
   158   164   165    2
   159   210   209    2
   160   203   202    2
   161   204   205    1
   162   204   201    1
   163   207   202   am
   164   202   201    1
   165   186   183    1
   166   205   206    1
   167   158   159    1
   168   158   155    1
   169   159   161    1
   170   201   200    1
   171   171   172    2
   172   157   156    2
   173   183   182    1
   174   183   184    1
   175   197   196    2
   176   153   151    1
   177   156   155    1
   178   206   200    1
   179   155   154    1
   180   150   149    2
   181   142   141    2
   182   146   144    1
   183   182   179   am
   184   145   144    1
   185   144   143    1
   186   194   184   am
   187   194   195    1
   188   184   185    2
   189   196   195    1
   190   147   148    1
   191   141   140    1
   192   149   148    1
   193   195   198    1
   194   181   178    1
   195   179   178    1
   196   179   180    2
   197   177   178    1
   198   151   148    1
   199   151   152    1
   200   143   140    1
   201   140   139    1
   202   198   199    1
   203   131   130    2
   204   136   138   ar
   205   136   134   ar
   206   138   137   ar
   207   134   133   ar
   208   137   135   ar
   209   133   135   ar
   210   133   132    1
   211   132   129    1
   212   129   130    1
   213   129   128    1
