@<TRIPOS>MOLECULE
tmp/3chrA00.pdb
 232 229 0 0 0
SMALL
GASTEIGER

@<TRIPOS>ATOM
      1  N          6.3600   48.2010   59.1280 N.3   134  GLN134     -0.1245
      2  CA         7.0910   47.3530   60.0460 C.3   134  GLN134      0.1566
      3  C          6.0440   46.3780   60.4760 C.2   134  GLN134      0.2260
      4  O          5.3400   46.5950   61.4700 O.2   134  GLN134     -0.2867
      5  CB         7.6770   48.1510   61.2280 C.3   134  GLN134      0.0367
      6  CG         8.3420   47.2850   62.3300 C.3   134  GLN134      0.0905
      7  CD         9.5030   46.4380   61.8130 C.2   134  GLN134      0.2608
      8  OE1       10.3100   46.9050   61.0160 O.2   134  GLN134     -0.2717
      9  NE2        9.5950   45.2090   62.2860 N.am  134  GLN134     -0.0878
     10  N          6.3160   43.0100   61.2840 N.3   136  GLN136     -0.1231
     11  CA         6.6070   41.9680   62.2850 C.3   136  GLN136      0.1698
     12  C          6.2710   42.5230   63.6670 C.2   136  GLN136      0.2592
     13  O          6.7440   43.6010   64.0220 O.2   136  GLN136     -0.2718
     14  CB         8.0900   41.5030   62.2290 C.3   136  GLN136      0.0381
     15  CG         8.3560   40.1520   62.9220 C.3   136  GLN136      0.0905
     16  CD         9.8350   39.6820   62.9130 C.2   136  GLN136      0.2608
     17  OE1       10.7680   40.4620   62.6530 O.2   136  GLN136     -0.2717
     18  NE2       10.0350   38.4140   63.2500 N.am  136  GLN136     -0.0878
     19  N          5.5280   41.7840   64.4740 N.am  137  ALA137     -0.1980
     20  CA         5.1460   40.3950   64.2080 C.3   137  ALA137      0.1597
     21  C          3.7920   40.2370   63.5030 C.2   137  ALA137      0.2287
     22  O          3.6950   39.5020   62.5060 O.2   137  ALA137     -0.2864
     23  CB         5.1550   39.6190   65.4830 C.3   137  ALA137      0.0319
     24  N         13.7050   49.2420   65.3920 N.3   267  TYR267     -0.1241
     25  CA        14.6520   48.1500   65.6480 C.3   267  TYR267      0.1605
     26  C         15.9900   48.3910   64.9660 C.2   267  TYR267      0.2264
     27  O         16.1170   49.2810   64.1190 O.2   267  TYR267     -0.2867
     28  CB        14.0540   46.8230   65.2080 C.3   267  TYR267      0.0534
     29  CG        12.7640   46.4480   65.9100 C.ar  267  TYR267     -0.0201
     30  CD1       12.7770   45.7320   67.1090 C.ar  267  TYR267     -0.0009
     31  CD2       11.5320   46.7710   65.3580 C.ar  267  TYR267     -0.0009
     32  CE1       11.5680   45.3700   67.7580 C.ar  267  TYR267      0.0417
     33  CE2       10.3330   46.4310   65.9960 C.ar  267  TYR267      0.0417
     34  CZ        10.3600   45.7500   67.2140 C.ar  267  TYR267      0.1957
     35  OH         9.1700   45.3790   67.8350 O.3   267  TYR267     -0.2866
     36  N         17.4350   46.4250   62.9370 N.3   269  GLY269     -0.1210
     37  CA        17.1650   46.0750   61.5740 C.3   269  GLY269      0.1956
     38  C         15.9590   45.1710   61.4880 C.2   269  GLY269      0.2612
     39  O         15.5770   44.5410   62.4700 O.2   269  GLY269     -0.2717
     40  N         15.3610   45.1400   60.2980 N.am  270  MET270     -0.1965
     41  CA        14.2930   44.2170   59.9610 C.3   270  MET270      0.1736
     42  C         14.6510   43.5750   58.6260 C.2   270  MET270      0.2616
     43  O         14.9920   44.2940   57.6570 O.2   270  MET270     -0.2715
     44  CB        12.9840   44.9810   59.8250 C.3   270  MET270      0.0427
     45  CG        11.8280   44.1620   59.3270 C.3   270  MET270      0.0599
     46  SD        11.3910   42.8400   60.3900 S.3   270  MET270     -0.1393
     47  CE        10.9230   41.6170   59.2680 C.3   270  MET270      0.0692
     48  N         14.5460   42.2410   58.5860 N.am  271  GLU271     -0.1977
     49  CA        15.1060   41.4050   57.5160 C.3   271  GLU271      0.1602
     50  C         14.1530   41.2980   56.2800 C.2   271  GLU271      0.2287
     51  O         13.8450   40.2000   55.7920 O.2   271  GLU271     -0.2864
     52  CB        15.4250   39.9970   58.0670 C.3   271  GLU271      0.0415
     53  CG        14.2470   39.1670   58.5710 C.3   271  GLU271      0.1163
     54  CD        13.9540   39.2650   60.0690 C.2   271  GLU271      0.3649
     55  OE1       14.3460   40.2600   60.7120 O.co2 271  GLU271     -0.2457
     56  OE2       13.2920   38.3470   60.6140 O.co2 271  GLU271     -0.2457
     57  N         23.7570   40.2400   60.8530 N.3   295  HIS295     -0.1226
     58  CA        22.5920   39.5840   61.4010 C.3   295  HIS295      0.1752
     59  C         21.4780   39.5680   60.3840 C.2   295  HIS295      0.2595
     60  O         20.8160   38.5330   60.2100 O.2   295  HIS295     -0.2718
     61  CB        22.1780   40.2900   62.7000 C.3   295  HIS295      0.0759
     62  CG        20.9360   39.7420   63.3330 C.ar  295  HIS295      0.0818
     63  ND1       20.9560   38.9970   64.4930 N.ar  295  HIS295     -0.2268
     64  CD2       19.6330   39.8570   62.9820 C.ar  295  HIS295      0.1154
     65  CE1       19.7160   38.6620   64.8200 C.ar  295  HIS295      0.1986
     66  NE2       18.8950   39.1760   63.9210 N.ar  295  HIS295     -0.2212
     67  N         21.2800   40.7030   59.6950 N.am  296  GLU296     -0.1979
     68  CA        20.1710   40.8140   58.7420 C.3   296  GLU296      0.1602
     69  C         20.4200   39.9400   57.5140 C.2   296  GLU296      0.2287
     70  O         19.5270   39.2510   57.0670 O.2   296  GLU296     -0.2864
     71  CB        19.8760   42.2810   58.3810 C.3   296  GLU296      0.0415
     72  CG        19.6020   43.1590   59.6080 C.3   296  GLU296      0.1163
     73  CD        18.3820   42.7210   60.4250 C.2   296  GLU296      0.3649
     74  OE1       17.4830   42.0450   59.8740 O.co2 296  GLU296     -0.2457
     75  OE2       18.3140   43.0280   61.6290 O.co2 296  GLU296     -0.2457
     76  N         19.3570   36.3000   58.2850 N.3   299  HIS299     -0.1241
     77  CA        17.9030   36.0650   58.1580 C.3   299  HIS299      0.1621
     78  C         17.4580   35.6370   56.7430 C.2   299  HIS299      0.2264
     79  O         16.4220   34.9630   56.5720 O.2   299  HIS299     -0.2867
     80  CB        17.0690   37.3050   58.5820 C.3   299  HIS299      0.0745
     81  CG        16.8120   37.4140   60.0630 C.ar  299  HIS299      0.0817
     82  ND1       16.3800   36.3550   60.8340 N.ar  299  HIS299     -0.2268
     83  CD2       16.8880   38.4740   60.9020 C.ar  299  HIS299      0.1154
     84  CE1       16.2350   36.7480   62.0830 C.ar  299  HIS299      0.1986
     85  NE2       16.5170   38.0350   62.1480 N.ar  299  HIS299     -0.2212
     86  N          4.7250   32.4040   66.4680 N.3   311  TRP311     -0.1227
     87  CA         5.6160   33.2790   67.1920 C.3   311  TRP311      0.1737
     88  C          6.0680   32.6730   68.5280 C.2   311  TRP311      0.2595
     89  O          7.0150   33.1690   69.1400 O.2   311  TRP311     -0.2718
     90  CB         4.9850   34.6710   67.3520 C.3   311  TRP311      0.0564
     91  CG         4.7710   35.3040   66.0730 C.ar  311  TRP311      0.0003
     92  CD1        3.5670   35.6050   65.4850 C.ar  311  TRP311      0.0946
     93  CD2        5.7790   35.6900   65.1340 C.ar  311  TRP311      0.0152
     94  NE1        3.7780   36.1830   64.2530 N.ar  311  TRP311     -0.2442
     95  CE2        5.1210   36.2580   64.0140 C.ar  311  TRP311      0.0810
     96  CE3        7.1780   35.6300   65.1320 C.ar  311  TRP311      0.0012
     97  CZ2        5.8050   36.7420   62.9090 C.ar  311  TRP311      0.0191
     98  CZ3        7.8610   36.1270   64.0570 C.ar  311  TRP311      0.0001
     99  CH2        7.1740   36.6550   62.9310 C.ar  311  TRP311      0.0015
    100  N          5.4240   31.5960   68.9510 N.am  312  ASP312     -0.1974
    101  CA         5.8990   30.8390   70.0990 C.3   312  ASP312      0.1709
    102  C          7.3020   30.2400   69.8860 C.2   312  ASP312      0.2293
    103  O          8.0100   29.9580   70.8690 O.2   312  ASP312     -0.2864
    104  CB         4.9530   29.6710   70.4240 C.3   312  ASP312      0.1436
    105  CG         3.6430   30.1130   71.0870 C.2   312  ASP312      0.3671
    106  OD1        3.4040   31.3200   71.2190 O.co2 312  ASP312     -0.2456
    107  OD2        2.8100   29.2890   71.5240 O.co2 312  ASP312     -0.2456
    108  N          9.6010   31.5720   67.8800 N.3   314  PHE314     -0.1227
    109  CA        10.4110   32.6980   67.4040 C.3   314  PHE314      0.1736
    110  C         11.9060   32.5160   67.6660 C.2   314  PHE314      0.2595
    111  O         12.7220   33.1030   66.9650 O.2   314  PHE314     -0.2718
    112  CB         9.8850   33.9380   68.1280 C.3   314  PHE314      0.0547
    113  CG        10.6250   35.2100   67.8310 C.ar  314  PHE314     -0.0202
    114  CD1       10.7610   35.6600   66.5440 C.ar  314  PHE314     -0.0042
    115  CD2       11.1080   35.9900   68.8700 C.ar  314  PHE314     -0.0042
    116  CE1       11.4330   36.8580   66.2740 C.ar  314  PHE314     -0.0003
    117  CE2       11.7800   37.1790   68.6240 C.ar  314  PHE314     -0.0003
    118  CZ        11.9350   37.6110   67.3230 C.ar  314  PHE314     -0.0000
    119  N         12.2810   31.7430   68.6910 N.am  315  TRP315     -0.1976
    120  CA        13.7220   31.5180   68.9730 C.3   315  TRP315      0.1640
    121  C         14.4110   30.8700   67.7590 C.2   315  TRP315      0.2290
    122  O         15.5830   31.1330   67.4760 O.2   315  TRP315     -0.2864
    123  CB        13.9600   30.7070   70.2660 C.3   315  TRP315      0.0576
    124  CG        13.8010   29.2320   70.0980 C.ar  315  TRP315      0.0006
    125  CD1       12.6550   28.5250   70.1640 C.ar  315  TRP315      0.0946
    126  CD2       14.8370   28.2830   69.8390 C.ar  315  TRP315      0.0152
    127  NE1       12.9010   27.1920   69.9410 N.ar  315  TRP315     -0.2442
    128  CE2       14.2320   27.0210   69.7170 C.ar  315  TRP315      0.0810
    129  CE3       16.2110   28.3780   69.6390 C.ar  315  TRP315      0.0012
    130  CZ2       14.9680   25.8530   69.4780 C.ar  315  TRP315      0.0191
    131  CZ3       16.9320   27.2260   69.3570 C.ar  315  TRP315      0.0001
    132  CH2       16.3160   25.9910   69.2810 C.ar  315  TRP315      0.0015
    133  N         15.6000   33.7330   65.6370 N.3   318  GLU318     -0.1245
    134  CA        16.5990   34.6370   66.1620 C.3   318  GLU318      0.1567
    135  C         17.8100   33.8900   66.7040 C.2   318  GLU318      0.2260
    136  O         18.9150   34.3270   66.5360 O.2   318  GLU318     -0.2867
    137  CB        15.9840   35.6140   67.1850 C.3   318  GLU318      0.0388
    138  CG        14.9260   36.5260   66.5600 C.3   318  GLU318      0.1160
    139  CD        15.4710   37.4460   65.4520 C.2   318  GLU318      0.3649
    140  OE1       16.7280   37.6410   65.3180 O.co2 318  GLU318     -0.2457
    141  OE2       14.6330   37.9860   64.6900 O.co2 318  GLU318     -0.2457
    142  N          8.3690   34.8370   80.0340 N.3   362  PHE362     -0.1241
    143  CA         9.0560   35.2610   78.8340 C.3   362  PHE362      0.1605
    144  C         10.5550   34.9850   78.9000 C.2   362  PHE362      0.2264
    145  O         11.2640   35.3800   77.9870 O.2   362  PHE362     -0.2867
    146  CB         8.8930   36.7460   78.4720 C.3   362  PHE362      0.0534
    147  CG         7.4950   37.2470   78.4480 C.ar  362  PHE362     -0.0203
    148  CD1        6.4020   36.3910   78.3560 C.ar  362  PHE362     -0.0042
    149  CD2        7.2720   38.6270   78.5540 C.ar  362  PHE362     -0.0042
    150  CE1        5.1290   36.9150   78.3460 C.ar  362  PHE362     -0.0003
    151  CE2        6.0060   39.1470   78.5500 C.ar  362  PHE362     -0.0003
    152  CZ         4.9300   38.3000   78.4500 C.ar  362  PHE362     -0.0000
    153  N         12.4930   29.5940   76.6460 N.3   365  LEU365     -0.1245
    154  CA        12.9270   29.6450   75.2460 C.3   365  LEU365      0.1561
    155  C         11.7720   29.4990   74.2780 C.2   365  LEU365      0.2260
    156  O         11.6530   30.2670   73.3130 O.2   365  LEU365     -0.2867
    157  CB        13.9700   28.5450   74.9410 C.3   365  LEU365      0.0270
    158  CG        14.6290   28.5990   73.5730 C.3   365  LEU365      0.0019
    159  CD1       15.4210   29.9020   73.3490 C.3   365  LEU365      0.0001
    160  CD2       15.5190   27.3780   73.3970 C.3   365  LEU365      0.0001
    161  N          7.8730   29.9070   74.1830 N.3   367  VAL367     -0.1245
    162  CA         6.9450   30.6500   75.0320 C.3   367  VAL367      0.1561
    163  C          5.5010   30.2540   74.6810 C.2   367  VAL367      0.2260
    164  O          5.2830   29.3910   73.8320 O.2   367  VAL367     -0.2867
    165  CB         7.1730   32.1590   74.8680 C.3   367  VAL367      0.0252
    166  CG1        8.5430   32.5650   75.3280 C.3   367  VAL367      0.0019
    167  CG2        6.9760   32.5780   73.4460 C.3   367  VAL367      0.0019
    168  N          2.1720   32.6200   73.7460 N.3   369  LEU369     -0.1245
    169  CA         1.7170   33.9850   73.5480 C.3   369  LEU369      0.1561
    170  C          0.1740   34.1190   73.4870 C.2   369  LEU369      0.2260
    171  O         -0.3490   35.0920   72.9470 O.2   369  LEU369     -0.2867
    172  CB         2.3670   34.5820   72.3010 C.3   369  LEU369      0.0270
    173  CG         3.9030   34.6890   72.3780 C.3   369  LEU369      0.0019
    174  CD1        4.4170   35.2720   71.1230 C.3   369  LEU369      0.0001
    175  CD2        4.3710   35.5050   73.5510 C.3   369  LEU369      0.0001
    176  N          2.4760   40.2460   71.2300 N.3   374  PRO374     -0.2102
    177  CA         3.8820   39.9230   70.9040 C.3   374  PRO374      0.1504
    178  C          4.8770   41.0530   71.1550 C.2   374  PRO374      0.2575
    179  O          5.9940   40.7890   71.5630 O.2   374  PRO374     -0.2718
    180  CB         3.8300   39.5950   69.3890 C.3   374  PRO374      0.0282
    181  CG         2.3960   39.1100   69.1300 C.3   374  PRO374      0.0208
    182  CD         1.5530   39.7870   70.1750 C.3   374  PRO374      0.0893
    183  N          4.4860   42.2860   70.8720 N.am  375  ASP375     -0.1974
    184  CA         5.3870   43.4210   70.9990 C.3   375  ASP375      0.1708
    185  C          5.8170   43.6380   72.4430 C.2   375  ASP375      0.2293
    186  O          6.8920   44.1720   72.7090 O.2   375  ASP375     -0.2864
    187  CB         4.7290   44.7080   70.4820 C.3   375  ASP375      0.1436
    188  CG         4.6090   44.7630   68.9550 C.2   375  ASP375      0.3671
    189  OD1        5.3580   44.0410   68.2280 O.co2 375  ASP375     -0.2456
    190  OD2        3.7780   45.5430   68.4080 O.co2 375  ASP375     -0.2456
    191  N          5.9990   41.0330   74.6680 N.3   377  ALA377     -0.1231
    192  CA         6.8400   39.9010   75.0670 C.3   377  ALA377      0.1694
    193  C          8.2520   40.0410   74.5550 C.2   377  ALA377      0.2592
    194  O          9.1570   39.4440   75.1050 O.2   377  ALA377     -0.2718
    195  CB         6.2310   38.5710   74.5730 C.3   377  ALA377      0.0304
    196  N          8.4340   40.8220   73.5040 N.am  378  TYR378     -0.1962
    197  CA         9.6810   40.8530   72.7570 C.3   378  TYR378      0.1771
    198  C         10.8220   41.2690   73.6390 C.2   378  TYR378      0.2620
    199  O         10.6930   42.1940   74.4290 O.2   378  TYR378     -0.2715
    200  CB         9.5880   41.7940   71.5490 C.3   378  TYR378      0.0574
    201  CG        10.8980   42.0510   70.8210 C.ar  378  TYR378     -0.0198
    202  CD1       11.3030   41.2110   69.7950 C.ar  378  TYR378     -0.0009
    203  CD2       11.7250   43.1360   71.1530 C.ar  378  TYR378     -0.0009
    204  CE1       12.4840   41.4270   69.0970 C.ar  378  TYR378      0.0417
    205  CE2       12.9390   43.3520   70.4820 C.ar  378  TYR378      0.0417
    206  CZ        13.3030   42.4800   69.4320 C.ar  378  TYR378      0.1957
    207  OH        14.4800   42.6460   68.7110 O.3   378  TYR378     -0.2866
    208  N         11.9590   40.5910   73.4740 N.am  379  SER379     -0.1950
    209  CA        13.1540   40.8490   74.2970 C.3   379  SER379      0.1924
    210  C         14.3230   40.0690   73.7320 C.2   379  SER379      0.2314
    211  O         14.1790   39.4080   72.7240 O.2   379  SER379     -0.2863
    212  CB        12.9370   40.3730   75.7280 C.3   379  SER379      0.2116
    213  OG        13.1500   38.9520   75.8350 O.3   379  SER379     -0.2180
    214  N         14.8430   35.2480   73.3160 N.3   382  PRO382     -0.2102
    215  CA        14.8880   34.3000   72.1950 C.3   382  PRO382      0.1504
    216  C         16.2150   34.4080   71.4290 C.2   382  PRO382      0.2575
    217  O         16.7300   33.4180   70.9660 O.2   382  PRO382     -0.2718
    218  CB        13.6420   34.6510   71.3580 C.3   382  PRO382      0.0282
    219  CG        13.1940   36.0650   71.8540 C.3   382  PRO382      0.0208
    220  CD        13.7210   36.1980   73.2100 C.3   382  PRO382      0.0893
    221  N         16.7670   35.6060   71.3270 N.am  383  TYR383     -0.1977
    222  CA        18.0580   35.8310   70.7080 C.3   383  TYR383      0.1639
    223  C         19.2050   35.1060   71.4630 C.2   383  TYR383      0.2290
    224  O         19.9760   34.3870   70.8690 O.2   383  TYR383     -0.2864
    225  CB        18.4010   37.3160   70.7320 C.3   383  TYR383      0.0560
    226  CG        17.5550   38.1600   69.8280 C.ar  383  TYR383     -0.0198
    227  CD1       16.2110   38.3990   70.1310 C.ar  383  TYR383     -0.0009
    228  CD2       18.0710   38.7110   68.6670 C.ar  383  TYR383     -0.0009
    229  CE1       15.4320   39.1570   69.2970 C.ar  383  TYR383      0.0417
    230  CE2       17.2820   39.4940   67.8430 C.ar  383  TYR383      0.0417
    231  CZ        15.9560   39.7220   68.1830 C.ar  383  TYR383      0.1957
    232  OH        15.0990   40.4670   67.3520 O.3   383  TYR383     -0.2866
@<TRIPOS>BOND
     1    51    50    2
     2    50    49    1
     3    79    78    2
     4    78    77    1
     5    70    69    2
     6    69    68    1
     7    49    52    1
     8    49    48    1
     9    43    42    2
    10    52    53    1
    11    77    76    1
    12    77    80    1
    13    71    68    1
    14    71    72    1
    15    53    54    1
    16    80    81    1
    17    48    42   am
    18    42    41    1
    19    68    67    1
    20     1     2    1
    21    47    46    1
    22    45    44    1
    23    45    46    1
    24    72    73    1
    25    67    59   am
    26    44    41    1
    27    74    73   ar
    28    41    40    1
    29     2     3    1
    30     2     5    1
    31    81    82   ar
    32    81    83   ar
    33    54    56   ar
    34    54    55   ar
    35    60    59    2
    36    40    38   am
    37    59    58    1
    38    73    75   ar
    39     3     4    2
    40    82    84   ar
    41    57    58    1
    42    83    85   ar
    43     8     7    2
    44     5     6    1
    45    10    11    1
    46    58    61    1
    47    38    37    1
    48    38    39    2
    49    37    36    1
    50     7     9   am
    51     7     6    1
    52    84    85   ar
    53    14    11    1
    54    14    15    1
    55    11    12    1
    56    22    21    2
    57    17    16    2
    58    61    62    1
    59    97    99   ar
    60    97    95   ar
    61    16    15    1
    62    16    18   am
    63    99    98   ar
    64    64    62   ar
    65    64    66   ar
    66    62    63   ar
    67    21    20    1
    68    12    13    2
    69    12    19   am
    70    66    65   ar
    71    95    94   ar
    72    95    93   ar
    73    98    96   ar
    74    27    26    2
    75    20    19    1
    76    20    23    1
    77    94    92   ar
    78    63    65   ar
    79   141   139   ar
    80    26    25    1
    81    96    93   ar
    82    93    91   ar
    83    28    25    1
    84    28    29    1
    85   140   139   ar
    86    31    29   ar
    87    31    33   ar
    88    24    25    1
    89   139   138    1
    90    92    91   ar
    91   133   134    1
    92    29    30   ar
    93    33    34   ar
    94    91    90    1
    95   134   135    1
    96   134   137    1
    97   116   114   ar
    98   116   118   ar
    99    86    87    1
   100   136   135    2
   101   114   113   ar
   102   138   137    1
   103   111   110    2
   104    30    32   ar
   105    87    90    1
   106    87    88    1
   107    34    32   ar
   108    34    35    1
   109   118   117   ar
   110   232   231    1
   111   109   110    1
   112   109   108    1
   113   109   112    1
   114   122   121    2
   115   110   119   am
   116   121   120    1
   117   113   112    1
   118   113   115   ar
   119   230   231   ar
   120   230   228   ar
   121   231   229   ar
   122   189   188   ar
   123   190   188   ar
   124    88   100   am
   125    88    89    2
   126   117   115   ar
   127   228   226   ar
   128   119   120    1
   129   207   206    1
   130   100   101    1
   131   188   187    1
   132   120   123    1
   133   204   206   ar
   134   204   202   ar
   135   181   180    1
   136   181   182    1
   137   132   131   ar
   138   132   130   ar
   139   229   227   ar
   140   131   129   ar
   141   180   177    1
   142   206   205   ar
   143   130   128   ar
   144   129   126   ar
   145   128   126   ar
   146   128   127   ar
   147   202   201   ar
   148   226   227   ar
   149   226   225    1
   150   126   124   ar
   151   102   101    1
   152   102   103    2
   153   127   125   ar
   154   124   125   ar
   155   124   123    1
   156   101   104    1
   157   182   176    1
   158   104   105    1
   159   187   184    1
   160   205   203   ar
   161   222   225    1
   162   222   221    1
   163   222   223    1
   164   201   203   ar
   165   201   200    1
   166   224   223    2
   167   183   184    1
   168   183   178   am
   169   177   178    1
   170   177   176    1
   171   217   216    2
   172   184   185    1
   173   105   106   ar
   174   105   107   ar
   175   174   173    1
   176   178   179    2
   177   221   216   am
   178   218   219    1
   179   218   215    1
   180   216   215    1
   181   200   197    1
   182   219   220    1
   183   215   214    1
   184   172   173    1
   185   172   169    1
   186   173   175    1
   187   185   186    2
   188   211   210    2
   189   197   196    1
   190   197   198    1
   191   171   170    2
   192   220   214    1
   193   156   155    2
   194   159   158    1
   195   160   158    1
   196   167   165    1
   197   208   198   am
   198   208   209    1
   199   170   169    1
   200   196   193   am
   201   169   168    1
   202   158   157    1
   203   198   199    2
   204   210   209    1
   205   164   163    2
   206   161   162    1
   207   155   154    1
   208   209   212    1
   209   193   192    1
   210   193   194    2
   211   195   192    1
   212   191   192    1
   213   163   162    1
   214   165   162    1
   215   165   166    1
   216   157   154    1
   217   154   153    1
   218   212   213    1
   219   145   144    2
   220   150   148   ar
   221   150   152   ar
   222   148   147   ar
   223   147   146    1
   224   147   149   ar
   225   152   151   ar
   226   146   143    1
   227   151   149   ar
   228   143   144    1
   229   143   142    1
