@<TRIPOS>MOLECULE
tmp/3chsA00.pdb
 226 224 0 0 0
SMALL
GASTEIGER

@<TRIPOS>ATOM
      1  N          6.6390   43.1740   61.7270 N.3   136  GLN136     -0.1231
      2  CA         6.9590   42.1950   62.7700 C.3   136  GLN136      0.1698
      3  C          6.5470   42.6990   64.1650 C.2   136  GLN136      0.2592
      4  O          6.9240   43.8060   64.5600 O.2   136  GLN136     -0.2718
      5  CB         8.4480   41.7880   62.7410 C.3   136  GLN136      0.0381
      6  CG         8.7150   40.4210   63.3900 C.3   136  GLN136      0.0905
      7  CD        10.1690   39.9480   63.3190 C.2   136  GLN136      0.2608
      8  OE1       11.0890   40.7380   63.1030 O.2   136  GLN136     -0.2717
      9  NE2       10.3710   38.6500   63.5140 N.am  136  GLN136     -0.0878
     10  N          5.7890   41.9010   64.9220 N.am  137  ALA137     -0.1980
     11  CA         5.3960   40.5430   64.5530 C.3   137  ALA137      0.1597
     12  C          4.0520   40.4740   63.8280 C.2   137  ALA137      0.2287
     13  O          3.9410   39.8350   62.7820 O.2   137  ALA137     -0.2864
     14  CB         5.3790   39.6550   65.7830 C.3   137  ALA137      0.0319
     15  N         14.0020   49.4080   65.9410 N.3   267  TYR267     -0.1241
     16  CA        14.9560   48.3080   66.1400 C.3   267  TYR267      0.1605
     17  C         16.3550   48.5490   65.5680 C.2   267  TYR267      0.2264
     18  O         16.5830   49.5160   64.8370 O.2   267  TYR267     -0.2867
     19  CB        14.3910   46.9900   65.6020 C.3   267  TYR267      0.0534
     20  CG        13.0730   46.5920   66.2270 C.ar  267  TYR267     -0.0201
     21  CD1       13.0300   45.9050   67.4470 C.ar  267  TYR267     -0.0009
     22  CD2       11.8630   46.8990   65.5980 C.ar  267  TYR267     -0.0009
     23  CE1       11.8090   45.5320   68.0190 C.ar  267  TYR267      0.0417
     24  CE2       10.6460   46.5300   66.1560 C.ar  267  TYR267      0.0417
     25  CZ        10.6210   45.8500   67.3600 C.ar  267  TYR267      0.1957
     26  OH         9.4040   45.5000   67.9110 O.3   267  TYR267     -0.2866
     27  N         17.7910   46.4640   63.4910 N.3   269  GLY269     -0.1210
     28  CA        17.5200   46.1800   62.1020 C.3   269  GLY269      0.1956
     29  C         16.2360   45.3950   61.9560 C.2   269  GLY269      0.2612
     30  O         15.6480   44.9340   62.9400 O.2   269  GLY269     -0.2717
     31  N         15.7960   45.2620   60.7110 N.am  270  MET270     -0.1965
     32  CA        14.6810   44.3990   60.3590 C.3   270  MET270      0.1736
     33  C         15.0280   43.7510   59.0390 C.2   270  MET270      0.2616
     34  O         15.2800   44.4380   58.0400 O.2   270  MET270     -0.2715
     35  CB        13.3730   45.1900   60.2510 C.3   270  MET270      0.0427
     36  CG        12.1800   44.3490   59.8110 C.3   270  MET270      0.0599
     37  SD        11.8090   42.9720   60.9280 S.3   270  MET270     -0.1393
     38  CE        11.4510   41.6900   59.7390 C.3   270  MET270      0.0692
     39  N         15.0240   42.4250   59.0500 N.am  271  GLU271     -0.1977
     40  CA        15.5060   41.6040   57.9420 C.3   271  GLU271      0.1602
     41  C         14.5430   41.5460   56.7470 C.2   271  GLU271      0.2287
     42  O         14.3120   40.4790   56.1720 O.2   271  GLU271     -0.2864
     43  CB        15.8160   40.1950   58.4660 C.3   271  GLU271      0.0415
     44  CG        14.5930   39.3620   58.8590 C.3   271  GLU271      0.1163
     45  CD        14.2080   39.4540   60.3300 C.2   271  GLU271      0.3649
     46  OE1       14.3720   40.5270   60.9460 O.co2 271  GLU271     -0.2457
     47  OE2       13.7120   38.4440   60.8760 O.co2 271  GLU271     -0.2457
     48  N         23.8700   40.3490   61.4490 N.3   295  HIS295     -0.1226
     49  CA        22.6220   39.7900   61.9750 C.3   295  HIS295      0.1752
     50  C         21.5430   39.7300   60.8920 C.2   295  HIS295      0.2595
     51  O         21.0390   38.6480   60.5920 O.2   295  HIS295     -0.2718
     52  CB        22.1380   40.5810   63.2110 C.3   295  HIS295      0.0759
     53  CG        20.9410   39.9840   63.8960 C.ar  295  HIS295      0.0818
     54  ND1       21.0460   39.1230   64.9700 N.ar  295  HIS295     -0.2268
     55  CD2       19.6150   40.1400   63.6710 C.ar  295  HIS295      0.1154
     56  CE1       19.8370   38.7750   65.3730 C.ar  295  HIS295      0.1986
     57  NE2       18.9520   39.3740   64.5990 N.ar  295  HIS295     -0.2212
     58  N         21.2150   40.8800   60.2930 N.am  296  GLU296     -0.1979
     59  CA        20.1800   40.9380   59.2590 C.3   296  GLU296      0.1602
     60  C         20.5350   40.1080   58.0300 C.2   296  GLU296      0.2287
     61  O         19.6570   39.4980   57.4240 O.2   296  GLU296     -0.2864
     62  CB        19.8650   42.3750   58.8380 C.3   296  GLU296      0.0415
     63  CG        19.4910   43.3300   59.9640 C.3   296  GLU296      0.1163
     64  CD        18.4530   42.7830   60.9290 C.2   296  GLU296      0.3649
     65  OE1       17.6470   41.9040   60.5550 O.co2 296  GLU296     -0.2457
     66  OE2       18.4490   43.2400   62.0850 O.co2 296  GLU296     -0.2457
     67  N         19.7150   36.4810   58.6470 N.3   299  HIS299     -0.1241
     68  CA        18.2750   36.2440   58.5940 C.3   299  HIS299      0.1621
     69  C         17.7850   35.7830   57.2090 C.2   299  HIS299      0.2264
     70  O         16.6990   35.2020   57.1030 O.2   299  HIS299     -0.2867
     71  CB        17.5210   37.4970   59.0240 C.3   299  HIS299      0.0745
     72  CG        17.1110   37.5070   60.4680 C.ar  299  HIS299      0.0817
     73  ND1       16.5170   36.4290   61.0890 N.ar  299  HIS299     -0.2268
     74  CD2       17.1870   38.4830   61.4060 C.ar  299  HIS299      0.1154
     75  CE1       16.2580   36.7340   62.3490 C.ar  299  HIS299      0.1986
     76  NE2       16.6470   37.9770   62.5650 N.ar  299  HIS299     -0.2212
     77  N          4.9550   32.5550   66.7820 N.3   311  TRP311     -0.1227
     78  CA         5.8720   33.4140   67.5230 C.3   311  TRP311      0.1737
     79  C          6.3140   32.7950   68.8510 C.2   311  TRP311      0.2595
     80  O          7.2740   33.2660   69.4740 O.2   311  TRP311     -0.2718
     81  CB         5.2660   34.8100   67.7170 C.3   311  TRP311      0.0564
     82  CG         4.9700   35.4750   66.4070 C.ar  311  TRP311      0.0003
     83  CD1        3.7440   35.7290   65.8740 C.ar  311  TRP311      0.0946
     84  CD2        5.9280   35.9290   65.4460 C.ar  311  TRP311      0.0152
     85  NE1        3.8790   36.3330   64.6470 N.ar  311  TRP311     -0.2442
     86  CE2        5.2100   36.4620   64.3570 C.ar  311  TRP311      0.0810
     87  CE3        7.3320   35.9540   65.4010 C.ar  311  TRP311      0.0012
     88  CZ2        5.8380   37.0080   63.2360 C.ar  311  TRP311      0.0191
     89  CZ3        7.9580   36.4940   64.2860 C.ar  311  TRP311      0.0001
     90  CH2        7.2070   37.0170   63.2190 C.ar  311  TRP311      0.0015
     91  N          5.6300   31.7260   69.2590 N.am  312  ASP312     -0.1974
     92  CA         6.0320   30.9410   70.4270 C.3   312  ASP312      0.1709
     93  C          7.4470   30.3890   70.2700 C.2   312  ASP312      0.2293
     94  O          8.1490   30.1740   71.2660 O.2   312  ASP312     -0.2864
     95  CB         5.0620   29.7740   70.6650 C.3   312  ASP312      0.1436
     96  CG         3.7470   30.2210   71.2770 C.2   312  ASP312      0.3671
     97  OD1        3.5910   31.4320   71.5300 O.co2 312  ASP312     -0.2456
     98  OD2        2.8180   29.4310   71.5480 O.co2 312  ASP312     -0.2456
     99  N          9.8630   31.8190   68.4000 N.3   314  PHE314     -0.1227
    100  CA        10.6690   32.9480   67.9460 C.3   314  PHE314      0.1736
    101  C         12.1400   32.6340   68.0590 C.2   314  PHE314      0.2595
    102  O         12.9130   32.9740   67.1620 O.2   314  PHE314     -0.2718
    103  CB        10.3440   34.1670   68.8020 C.3   314  PHE314      0.0547
    104  CG        11.0030   35.4460   68.3620 C.ar  314  PHE314     -0.0202
    105  CD1       11.0080   35.8350   67.0250 C.ar  314  PHE314     -0.0042
    106  CD2       11.5820   36.2900   69.3100 C.ar  314  PHE314     -0.0042
    107  CE1       11.6020   37.0340   66.6380 C.ar  314  PHE314     -0.0003
    108  CE2       12.1790   37.4970   68.9360 C.ar  314  PHE314     -0.0003
    109  CZ        12.1890   37.8700   67.6000 C.ar  314  PHE314     -0.0000
    110  N         12.5260   31.9610   69.1440 N.am  315  TRP315     -0.1976
    111  CA        13.9330   31.6100   69.3750 C.3   315  TRP315      0.1640
    112  C         14.6090   30.9130   68.1820 C.2   315  TRP315      0.2290
    113  O         15.8130   31.0590   67.9870 O.2   315  TRP315     -0.2864
    114  CB        14.1010   30.7860   70.6590 C.3   315  TRP315      0.0576
    115  CG        13.9730   29.3100   70.4420 C.ar  315  TRP315      0.0006
    116  CD1       12.8370   28.5660   70.5250 C.ar  315  TRP315      0.0946
    117  CD2       15.0210   28.4000   70.0910 C.ar  315  TRP315      0.0152
    118  NE1       13.1090   27.2460   70.2510 N.ar  315  TRP315     -0.2442
    119  CE2       14.4460   27.1180   69.9820 C.ar  315  TRP315      0.0810
    120  CE3       16.3930   28.5390   69.8510 C.ar  315  TRP315      0.0012
    121  CZ2       15.1930   25.9850   69.6510 C.ar  315  TRP315      0.0191
    122  CZ3       17.1310   27.4190   69.5270 C.ar  315  TRP315      0.0001
    123  CH2       16.5300   26.1590   69.4230 C.ar  315  TRP315      0.0015
    124  N         15.8690   33.8090   66.0750 N.3   318  GLU318     -0.1245
    125  CA        16.9120   34.6670   66.6370 C.3   318  GLU318      0.1567
    126  C         18.1060   33.9230   67.2000 C.2   318  GLU318      0.2260
    127  O         19.2320   34.3930   67.0950 O.2   318  GLU318     -0.2867
    128  CB        16.3290   35.6250   67.6760 C.3   318  GLU318      0.0388
    129  CG        15.1430   36.4150   67.1580 C.3   318  GLU318      0.1160
    130  CD        15.4950   37.3240   65.9880 C.2   318  GLU318      0.3649
    131  OE1       16.7050   37.6140   65.7680 O.co2 318  GLU318     -0.2457
    132  OE2       14.5520   37.7670   65.2900 O.co2 318  GLU318     -0.2457
    133  N          8.2970   35.0040   80.5930 N.3   362  PHE362     -0.1241
    134  CA         8.9440   35.5660   79.4040 C.3   362  PHE362      0.1605
    135  C         10.4390   35.2420   79.3260 C.2   362  PHE362      0.2264
    136  O         11.0950   35.6300   78.3470 O.2   362  PHE362     -0.2867
    137  CB         8.7660   37.0920   79.3070 C.3   362  PHE362      0.0534
    138  CG         7.3420   37.5570   79.2010 C.ar  362  PHE362     -0.0203
    139  CD1        6.3010   36.6770   78.8830 C.ar  362  PHE362     -0.0042
    140  CD2        7.0380   38.8950   79.4230 C.ar  362  PHE362     -0.0042
    141  CE1        4.9780   37.1320   78.8030 C.ar  362  PHE362     -0.0003
    142  CE2        5.7160   39.3640   79.3380 C.ar  362  PHE362     -0.0003
    143  CZ         4.6900   38.4840   79.0320 C.ar  362  PHE362     -0.0000
    144  N         11.3950   32.0150   79.6210 N.3   364  LYS364     -0.1231
    145  CA        11.4010   30.6960   79.0110 C.3   364  LYS364      0.1693
    146  C         11.9180   30.8300   77.5810 C.2   364  LYS364      0.2591
    147  O         11.7910   31.9020   76.9810 O.2   364  LYS364     -0.2718
    148  CB         9.9960   30.1010   79.0170 C.3   364  LYS364      0.0285
    149  CG         9.6020   29.5160   80.3590 C.3   364  LYS364      0.0035
    150  CD         8.1010   29.4380   80.5090 C.3   364  LYS364      0.0206
    151  CE         7.7180   29.0960   81.9250 C.3   364  LYS364      0.1093
    152  NZ         6.3100   28.5940   81.9860 N.3   364  LYS364     -0.1314
    153  N         12.5190   29.7660   77.0430 N.am  365  LEU365     -0.1980
    154  CA        12.9660   29.7960   75.6470 C.3   365  LEU365      0.1596
    155  C         11.7660   29.7930   74.7100 C.2   365  LEU365      0.2287
    156  O         11.6600   30.6410   73.8170 O.2   365  LEU365     -0.2864
    157  CB        13.8930   28.6190   75.3260 C.3   365  LEU365      0.0297
    158  CG        14.7610   28.7410   74.0690 C.3   365  LEU365      0.0022
    159  CD1       15.5240   30.0720   74.0320 C.3   365  LEU365      0.0001
    160  CD2       15.7060   27.5710   73.9690 C.3   365  LEU365      0.0001
    161  N          7.8840   30.3520   74.6750 N.3   367  VAL367     -0.1245
    162  CA         6.8780   31.0330   75.4840 C.3   367  VAL367      0.1561
    163  C          5.4850   30.8080   74.9100 C.2   367  VAL367      0.2260
    164  O          5.3080   30.7400   73.7060 O.2   367  VAL367     -0.2867
    165  CB         7.1510   32.5570   75.6120 C.3   367  VAL367      0.0252
    166  CG1        8.5780   32.8370   76.1070 C.3   367  VAL367      0.0019
    167  CG2        6.9330   33.2420   74.2900 C.3   367  VAL367      0.0019
    168  N          2.2790   32.4530   74.0390 N.3   369  LEU369     -0.1245
    169  CA         1.8080   33.8200   73.8080 C.3   369  LEU369      0.1561
    170  C          0.2850   33.9420   73.7290 C.2   369  LEU369      0.2260
    171  O         -0.2310   34.8830   73.1230 O.2   369  LEU369     -0.2867
    172  CB         2.4310   34.3970   72.5340 C.3   369  LEU369      0.0270
    173  CG         3.9380   34.6300   72.5010 C.3   369  LEU369      0.0019
    174  CD1        4.3410   35.0120   71.1020 C.3   369  LEU369      0.0001
    175  CD2        4.3750   35.6840   73.5120 C.3   369  LEU369      0.0001
    176  N          2.6770   40.3170   71.5160 N.3   374  PRO374     -0.2102
    177  CA         4.0720   39.9930   71.1790 C.3   374  PRO374      0.1504
    178  C          5.0450   41.1360   71.4510 C.2   374  PRO374      0.2575
    179  O          6.2140   40.8680   71.7170 O.2   374  PRO374     -0.2718
    180  CB         4.0080   39.6830   69.6780 C.3   374  PRO374      0.0282
    181  CG         2.6370   39.1640   69.4690 C.3   374  PRO374      0.0208
    182  CD         1.7600   39.9640   70.4130 C.3   374  PRO374      0.0893
    183  N          4.5760   42.3800   71.4060 N.am  375  ASP375     -0.1974
    184  CA         5.4570   43.5220   71.6430 C.3   375  ASP375      0.1708
    185  C          5.8890   43.6800   73.1050 C.2   375  ASP375      0.2293
    186  O          6.9610   44.2270   73.3800 O.2   375  ASP375     -0.2864
    187  CB         4.8170   44.8160   71.1260 C.3   375  ASP375      0.1436
    188  CG         4.8180   44.9040   69.6030 C.2   375  ASP375      0.3671
    189  OD1        5.6980   44.2780   68.9500 O.co2 375  ASP375     -0.2456
    190  OD2        3.9670   45.5840   68.9770 O.co2 375  ASP375     -0.2456
    191  N          6.3600   41.1050   75.2680 N.3   377  ALA377     -0.1231
    192  CA         7.1550   39.9670   75.7020 C.3   377  ALA377      0.1694
    193  C          8.5310   39.9790   75.0480 C.2   377  ALA377      0.2592
    194  O          9.4400   39.2460   75.4600 O.2   377  ALA377     -0.2718
    195  CB         6.4120   38.6620   75.3950 C.3   377  ALA377      0.0304
    196  N          8.6830   40.8200   74.0290 N.am  378  TYR378     -0.1976
    197  CA         9.9350   40.9180   73.2800 C.3   378  TYR378      0.1639
    198  C         11.1030   41.3100   74.1770 C.2   378  TYR378      0.2290
    199  O         11.0160   42.2480   74.9730 O.2   378  TYR378     -0.2864
    200  CB         9.7810   41.9000   72.1180 C.3   378  TYR378      0.0560
    201  CG        11.0370   42.1140   71.3110 C.ar  378  TYR378     -0.0198
    202  CD1       11.3770   41.2410   70.2880 C.ar  378  TYR378     -0.0009
    203  CD2       11.8920   43.2000   71.5750 C.ar  378  TYR378     -0.0009
    204  CE1       12.5310   41.4300   69.5430 C.ar  378  TYR378      0.0417
    205  CE2       13.0430   43.3970   70.8360 C.ar  378  TYR378      0.0417
    206  CZ        13.3590   42.5100   69.8190 C.ar  378  TYR378      0.1957
    207  OH        14.5130   42.6790   69.0620 O.3   378  TYR378     -0.2866
    208  N         14.9680   35.3000   73.7910 N.3   382  PRO382     -0.2102
    209  CA        15.0150   34.3840   72.6420 C.3   382  PRO382      0.1504
    210  C         16.3380   34.4850   71.8880 C.2   382  PRO382      0.2575
    211  O         16.8290   33.4550   71.4170 O.2   382  PRO382     -0.2718
    212  CB        13.8420   34.8360   71.7720 C.3   382  PRO382      0.0282
    213  CG        13.4630   36.1950   72.3060 C.3   382  PRO382      0.0208
    214  CD        13.7860   36.1820   73.7440 C.3   382  PRO382      0.0893
    215  N         16.9020   35.6930   71.7890 N.am  383  TYR383     -0.1977
    216  CA        18.1930   35.9180   71.1300 C.3   383  TYR383      0.1639
    217  C         19.3180   35.2140   71.8640 C.2   383  TYR383      0.2290
    218  O         20.1080   34.5160   71.2500 O.2   383  TYR383     -0.2864
    219  CB        18.5510   37.4150   71.0860 C.3   383  TYR383      0.0560
    220  CG        17.6840   38.2640   70.1920 C.ar  383  TYR383     -0.0198
    221  CD1       16.3610   38.5350   70.5330 C.ar  383  TYR383     -0.0009
    222  CD2       18.1830   38.8020   69.0120 C.ar  383  TYR383     -0.0009
    223  CE1       15.5530   39.3060   69.7170 C.ar  383  TYR383      0.0417
    224  CE2       17.3810   39.5850   68.1860 C.ar  383  TYR383      0.0417
    225  CZ        16.0680   39.8310   68.5420 C.ar  383  TYR383      0.1957
    226  OH        15.2480   40.6040   67.7410 O.3   383  TYR383     -0.2866
@<TRIPOS>BOND
     1    42    41    2
     2    41    40    1
     3    70    69    2
     4    69    68    1
     5    61    60    2
     6    40    43    1
     7    40    39    1
     8    60    59    1
     9    34    33    2
    10    43    44    1
    11    68    67    1
    12    68    71    1
    13    62    59    1
    14    62    63    1
    15    44    45    1
    16    71    72    1
    17    33    39   am
    18    33    32    1
    19    59    58    1
    20    38    37    1
    21    36    35    1
    22    36    37    1
    23    63    64    1
    24    35    32    1
    25    58    50   am
    26    45    47   ar
    27    45    46   ar
    28    32    31    1
    29    72    73   ar
    30    72    74   ar
    31    65    64   ar
    32    51    50    2
    33    31    29   am
    34    50    49    1
    35    64    66   ar
    36    73    75   ar
    37    74    76   ar
    38    48    49    1
    39     1     2    1
    40    29    28    1
    41    29    30    2
    42    49    52    1
    43    28    27    1
    44    75    76   ar
    45     5     2    1
    46     5     6    1
    47     2     3    1
    48    13    12    2
    49     8     7    2
    50    52    53    1
    51    90    88   ar
    52    90    89   ar
    53    88    86   ar
    54     7     6    1
    55     7     9   am
    56    55    53   ar
    57    55    57   ar
    58    12    11    1
    59    53    54   ar
    60     3     4    2
    61     3    10   am
    62    89    87   ar
    63    86    85   ar
    64    86    84   ar
    65    11    10    1
    66    11    14    1
    67    57    56   ar
    68    85    83   ar
    69    18    17    2
    70    54    56   ar
    71   132   130   ar
    72    87    84   ar
    73    84    82   ar
    74    17    16    1
    75    22    24   ar
    76    22    20   ar
    77    19    16    1
    78    19    20    1
    79   131   130   ar
    80    83    82   ar
    81    15    16    1
    82   130   129    1
    83   124   125    1
    84    24    25   ar
    85    20    21   ar
    86    82    81    1
    87   125   126    1
    88   125   128    1
    89   107   105   ar
    90   107   109   ar
    91    77    78    1
    92   105   104   ar
    93   127   126    2
    94   129   128    1
    95   102   101    2
    96    25    26    1
    97    25    23   ar
    98    21    23   ar
    99    78    81    1
   100    78    79    1
   101   109   108   ar
   102   226   225    1
   103   100   101    1
   104   100    99    1
   105   100   103    1
   106   113   112    2
   107   101   110   am
   108   112   111    1
   109   224   225   ar
   110   224   222   ar
   111   104   103    1
   112   104   106   ar
   113   225   223   ar
   114    79    91   am
   115    79    80    2
   116   108   106   ar
   117   189   188   ar
   118   190   188   ar
   119   222   220   ar
   120   207   206    1
   121   110   111    1
   122    91    92    1
   123   111   114    1
   124   123   122   ar
   125   123   121   ar
   126   181   180    1
   127   181   182    1
   128   122   120   ar
   129   204   206   ar
   130   204   202   ar
   131   188   187    1
   132   121   119   ar
   133   180   177    1
   134   223   221   ar
   135   206   205   ar
   136   120   117   ar
   137   119   117   ar
   138   119   118   ar
   139   117   115   ar
   140   220   221   ar
   141   220   219    1
   142   118   116   ar
   143    93    92    1
   144    93    94    2
   145   202   201   ar
   146   182   176    1
   147    92    95    1
   148   115   116   ar
   149   115   114    1
   150    95    96    1
   151   205   203   ar
   152   219   216    1
   153   174   173    1
   154   187   184    1
   155   216   215    1
   156   216   217    1
   157   177   178    1
   158   177   176    1
   159   218   217    2
   160    96    97   ar
   161    96    98   ar
   162   201   203   ar
   163   201   200    1
   164   183   178   am
   165   183   184    1
   166   211   210    2
   167   178   179    2
   168   184   185    1
   169   212   213    1
   170   212   209    1
   171   215   210   am
   172   210   209    1
   173   200   197    1
   174   213   214    1
   175   173   172    1
   176   173   175    1
   177   172   169    1
   178   209   208    1
   179   185   186    2
   180   171   170    2
   181   197   196    1
   182   197   198    1
   183   164   163    2
   184   170   169    1
   185   214   208    1
   186   169   168    1
   187   156   155    2
   188   160   158    1
   189   196   193   am
   190   159   158    1
   191   158   157    1
   192   198   199    2
   193   167   165    1
   194   161   162    1
   195   155   154    1
   196   163   162    1
   197   193   194    2
   198   193   192    1
   199   191   192    1
   200   157   154    1
   201   195   192    1
   202   162   165    1
   203   165   166    1
   204   154   153    1
   205   147   146    2
   206   153   146   am
   207   146   145    1
   208   136   135    2
   209   141   139   ar
   210   141   143   ar
   211   139   138   ar
   212   145   148    1
   213   145   144    1
   214   148   149    1
   215   143   142   ar
   216   138   137    1
   217   138   140   ar
   218   137   134    1
   219   135   134    1
   220   142   140   ar
   221   134   133    1
   222   149   150    1
   223   150   151    1
   224   151   152    1
