@<TRIPOS>MOLECULE
tmp/3chtA00.pdb
 128 119 0 0 0
SMALL
GASTEIGER

@<TRIPOS>ATOM
      1  N         -4.0380   -1.1760   -5.3730 N.3    70  TYR70      -0.1241
      2  CA        -2.6970   -1.5000   -4.8950 C.3    70  TYR70       0.1605
      3  C         -1.8490   -2.1280   -6.0410 C.2    70  TYR70       0.2264
      4  O         -0.6810   -1.7690   -6.2530 O.2    70  TYR70      -0.2867
      5  CB        -2.7460   -2.4290   -3.6700 C.3    70  TYR70       0.0534
      6  CG        -1.4150   -3.1270   -3.4590 C.ar   70  TYR70      -0.0201
      7  CD1       -0.3450   -2.4510   -2.8570 C.ar   70  TYR70      -0.0009
      8  CD2       -1.2010   -4.4330   -3.9210 C.ar   70  TYR70      -0.0009
      9  CE1        0.8990   -3.0700   -2.7030 C.ar   70  TYR70       0.0417
     10  CE2        0.0500   -5.0550   -3.7720 C.ar   70  TYR70       0.0417
     11  CZ         1.0750   -4.3620   -3.1510 C.ar   70  TYR70       0.1957
     12  OH         2.3100   -4.9560   -3.0000 O.3    70  TYR70      -0.2866
     13  N         -0.8240    0.5480   -8.6420 N.3    73  ARG73      -0.1231
     14  CA         0.2540    1.3910   -8.1340 C.3    73  ARG73       0.1694
     15  C          1.6040    0.6580   -8.1770 C.2    73  ARG73       0.2591
     16  O          2.6300    1.2600   -8.5330 O.2    73  ARG73      -0.2718
     17  CB        -0.0680    1.8740   -6.7150 C.3    73  ARG73       0.0321
     18  CG        -1.1910    2.9840   -6.7180 C.3    73  ARG73       0.0489
     19  CD        -1.3730    3.6800   -5.3620 C.3    73  ARG73       0.2205
     20  NE        -1.4670    2.7300   -4.2510 N.pl3  73  ARG73      -0.0865
     21  CZ        -2.6010    2.1880   -3.8020 C.cat  73  ARG73       0.5346
     22  NH1       -3.7660    2.4780   -4.3640 N.pl3  73  ARG73       0.1354
     23  NH2       -2.5620    1.3430   -2.7810 N.pl3  73  ARG73       0.1354
     24  N          1.6050   -0.6240   -7.8130 N.am   74  VAL74      -0.1980
     25  CA         2.8250   -1.4520   -7.9270 C.3    74  VAL74       0.1595
     26  C          3.3400   -1.4190   -9.3700 C.2    74  VAL74       0.2287
     27  O          4.5210   -1.1880   -9.5930 O.2    74  VAL74      -0.2864
     28  CB         2.6280   -2.9240   -7.4830 C.3    74  VAL74       0.0276
     29  CG1        3.8380   -3.7510   -7.8700 C.3    74  VAL74       0.0022
     30  CG2        2.4180   -3.0010   -5.9880 C.3    74  VAL74       0.0022
     31  N          4.7260    2.0520  -10.3090 N.3    77  THR77      -0.1203
     32  CA         6.0210    2.2170   -9.6340 C.3    77  THR77       0.1994
     33  C          7.1620    1.4640  -10.3570 C.2    77  THR77       0.2617
     34  O          8.2130    2.0540  -10.6430 O.2    77  THR77      -0.2717
     35  CB         5.9330    1.8360   -8.1290 C.3    77  THR77       0.1784
     36  OG1        4.9780    2.7120   -7.5090 O.3    77  THR77      -0.2211
     37  CG2        7.2520    2.0500   -7.4340 C.3    77  THR77       0.0376
     38  N          6.9220    0.1970  -10.7010 N.am   78  GLU78      -0.1979
     39  CA         7.9140   -0.6200  -11.4150 C.3    78  GLU78       0.1602
     40  C          8.2710    0.0330  -12.7240 C.2    78  GLU78       0.2287
     41  O          9.4540    0.2030  -13.0360 O.2    78  GLU78      -0.2864
     42  CB         7.3700   -2.0140  -11.7350 C.3    78  GLU78       0.0415
     43  CG         6.9160   -2.8500  -10.5130 C.3    78  GLU78       0.1163
     44  CD         8.0420   -3.4730   -9.7340 C.2    78  GLU78       0.3649
     45  OE1        7.7870   -4.5080   -9.0550 O.co2  78  GLU78      -0.2457
     46  OE2        9.1810   -2.9250   -9.7750 O.co2  78  GLU78      -0.2457
     47  N         11.1870    2.3390  -10.7090 N.3    82  ALA82      -0.1245
     48  CA        12.2130    1.3340  -10.3850 C.3    82  ALA82       0.1562
     49  C         13.0090    0.8900  -11.6370 C.2    82  ALA82       0.2260
     50  O         14.2420    1.0390  -11.6840 O.2    82  ALA82      -0.2867
     51  CB        11.5830    0.1010   -9.6440 C.3    82  ALA82       0.0290
     52  N         11.6980   -7.5050  -12.0250 N.3   113  GLU113     -0.1245
     53  CA        10.6530   -6.4610  -12.1730 C.3   113  GLU113      0.1567
     54  C          9.6870   -6.7720  -13.3200 C.2   113  GLU113      0.2260
     55  O          8.4930   -6.5030  -13.1910 O.2   113  GLU113     -0.2867
     56  CB        11.2280   -5.0320  -12.3480 C.3   113  GLU113      0.0388
     57  CG        12.2850   -4.6000  -11.3190 C.3   113  GLU113      0.1160
     58  CD        11.8210   -4.6510   -9.8850 C.2   113  GLU113      0.3649
     59  OE1       10.6240   -4.9280   -9.6360 O.co2 113  GLU113     -0.2457
     60  OE2       12.6530   -4.4260   -8.9740 O.co2 113  GLU113     -0.2457
     61  N         12.6690    3.9520   -3.8910 N.3   172  ALA172     -0.1231
     62  CA        11.5730    3.0110   -4.1550 C.3   172  ALA172      0.1694
     63  C         11.9260    1.5600   -3.8010 C.2   172  ALA172      0.2591
     64  O         11.0800    0.8100   -3.2940 O.2   172  ALA172     -0.2718
     65  CB        11.1550    3.0980   -5.6260 C.3   172  ALA172      0.0304
     66  N         13.1700    1.1700   -4.0740 N.am  173  GLU173     -0.1979
     67  CA        13.6030   -0.2320   -3.9440 C.3   173  GLU173      0.1602
     68  C         14.1140   -0.5880   -2.5520 C.2   173  GLU173      0.2287
     69  O         14.1760   -1.7700   -2.1910 O.2   173  GLU173     -0.2864
     70  CB        14.6490   -0.5560   -5.0080 C.3   173  GLU173      0.0415
     71  CG        14.0800   -0.6410   -6.4170 C.3   173  GLU173      0.1163
     72  CD        13.1810   -1.8690   -6.5900 C.2   173  GLU173      0.3649
     73  OE1       13.6840   -3.0050   -6.6540 O.co2 173  GLU173     -0.2457
     74  OE2       11.9590   -1.7020   -6.6700 O.co2 173  GLU173     -0.2457
     75  N         10.2420   -0.3340    1.7470 N.3   176  ILE176     -0.1231
     76  CA         9.2380   -1.3580    1.4640 C.3   176  ILE176      0.1692
     77  C          7.8380   -0.8960    1.8720 C.2   176  ILE176      0.2592
     78  O          7.6060   -0.5240    3.0400 O.2   176  ILE176     -0.2718
     79  CB         9.6090   -2.6690    2.1850 C.3   176  ILE176      0.0266
     80  CG1       10.9120   -3.2420    1.6040 C.3   176  ILE176      0.0019
     81  CG2        8.4760   -3.7130    2.0980 C.3   176  ILE176      0.0020
     82  CD1       11.5910   -4.2370    2.5310 C.3   176  ILE176      0.0001
     83  N          6.9190   -0.9180    0.9060 N.am  177  ASN177     -0.1974
     84  CA         5.5080   -0.5860    1.1380 C.3   177  ASN177      0.1688
     85  C          4.9420   -1.4710    2.2260 C.2   177  ASN177      0.2292
     86  O          5.0990   -2.6920    2.1780 O.2   177  ASN177     -0.2864
     87  CB         4.6940   -0.7880   -0.1470 C.3   177  ASN177      0.1181
     88  CG         3.3220   -0.0920   -0.1030 C.2   177  ASN177      0.2629
     89  OD1        2.7110    0.0480    0.9590 O.2   177  ASN177     -0.2716
     90  ND2        2.8460    0.3610   -1.2670 N.am  177  ASN177     -0.0877
     91  N          2.7080   -4.2680    0.9290 N.3   180  LEU180     -0.1245
     92  CA         3.4060   -5.4700    0.4150 C.3   180  LEU180      0.1561
     93  C          3.5950   -6.5180    1.5170 C.2   180  LEU180      0.2260
     94  O          3.2510   -7.6970    1.3380 O.2   180  LEU180     -0.2867
     95  CB         4.7610   -5.1140   -0.2190 C.3   180  LEU180      0.0270
     96  CG         5.7080   -6.2560   -0.6580 C.3   180  LEU180      0.0019
     97  CD1        5.1360   -7.0860   -1.8160 C.3   180  LEU180      0.0001
     98  CD2        7.0690   -5.6850   -1.0820 C.3   180  LEU180      0.0001
     99  N          6.8920  -11.3040   -4.3150 N.3   200  HIS200     -0.1241
    100  CA         7.4340   -9.9780   -4.6120 C.3   200  HIS200      0.1621
    101  C          8.3270   -9.5170   -3.4400 C.2   200  HIS200      0.2264
    102  O          9.4630   -9.0680   -3.6460 O.2   200  HIS200     -0.2867
    103  CB         6.2810   -9.0040   -4.8480 C.3   200  HIS200      0.0745
    104  CG         6.6670   -7.7420   -5.5660 C.ar  200  HIS200      0.0817
    105  ND1        5.7550   -6.9870   -6.2660 N.ar  200  HIS200     -0.2268
    106  CD2        7.8620   -7.1220   -5.7220 C.ar  200  HIS200      0.1154
    107  CE1        6.3640   -5.9390   -6.8020 C.ar  200  HIS200      0.1986
    108  NE2        7.6410   -5.9910   -6.4770 N.ar  200  HIS200     -0.2212
    109  N         12.1080   -8.3350   -3.4270 N.3   204  GLU204     -0.1245
    110  CA        12.3680   -6.9480   -3.0380 C.3   204  GLU204      0.1567
    111  C         13.3890   -6.8580   -1.9190 C.2   204  GLU204      0.2260
    112  O         14.1710   -5.9120   -1.8860 O.2   204  GLU204     -0.2867
    113  CB        11.0700   -6.2260   -2.6350 C.3   204  GLU204      0.0388
    114  CG        11.2020   -4.7070   -2.5330 C.3   204  GLU204      0.1160
    115  CD        11.2740   -4.0200   -3.9030 C.2   204  GLU204      0.3649
    116  OE1       10.6610   -2.9350   -4.0360 O.co2 204  GLU204     -0.2457
    117  OE2       11.9230   -4.5560   -4.8500 O.co2 204  GLU204     -0.2457
    118  N          5.8400    3.0540    5.3480 N.3   272  ARG272     -0.1245
    119  CA         6.8680    2.2400    4.7110 C.3   272  ARG272      0.1563
    120  C          7.9560    1.8630    5.6970 C.2   272  ARG272      0.2260
    121  O          8.1880    2.5620    6.6910 O.2   272  ARG272     -0.2867
    122  CB         7.5270    3.0040    3.5660 C.3   272  ARG272      0.0307
    123  CG         6.6340    3.2750    2.4230 C.3   272  ARG272      0.0489
    124  CD         7.3910    3.9490    1.3000 C.3   272  ARG272      0.2205
    125  NE         6.4850    4.1760    0.1850 N.pl3 272  ARG272     -0.0865
    126  CZ         6.3270    3.3470   -0.8400 C.cat 272  ARG272      0.5346
    127  NH1        7.0310    2.2180   -0.9250 N.pl3 272  ARG272      0.1354
    128  NH2        5.4620    3.6600   -1.7900 N.pl3 272  ARG272      0.1354
@<TRIPOS>BOND
     1    54    55    2
     2    54    53    1
     3    41    40    2
     4    40    39    1
     5    56    53    1
     6    56    57    1
     7    53    52    1
     8    42    39    1
     9    42    43    1
    10    50    49    2
    11    49    48    1
    12    39    38    1
    13    57    58    1
    14    47    48    1
    15    38    33   am
    16    34    33    2
    17    43    44    1
    18    48    51    1
    19    33    32    1
    20    31    32    1
    21    58    59   ar
    22    58    60   ar
    23    46    44   ar
    24    44    45   ar
    25    32    35    1
    26    27    26    2
    27    26    25    1
    28    13    14    1
    29    16    15    2
    30    15    14    1
    31    15    24   am
    32    14    17    1
    33    35    36    1
    34    35    37    1
    35    25    24    1
    36    25    28    1
    37    29    28    1
    38    28    30    1
    39   107   108   ar
    40   107   105   ar
    41    18    17    1
    42    18    19    1
    43    74    72   ar
    44    73    72   ar
    45    72    71    1
    46   108   106   ar
    47    71    70    1
    48   105   104   ar
    49     4     3    2
    50     3     2    1
    51   106   104   ar
    52    65    62    1
    53   104   103    1
    54     1     2    1
    55    19    20    1
    56    70    67    1
    57     2     5    1
    58   117   115   ar
    59   103   100    1
    60   100    99    1
    61   100   101    1
    62    22    21    1
    63    20    21    2
    64    62    61    1
    65    62    63    1
    66    66    67    1
    67    66    63   am
    68   116   115   ar
    69    67    68    1
    70     8    10   ar
    71     8     6   ar
    72   115   114    1
    73    21    23    1
    74    63    64    2
    75    10    11   ar
    76     5     6    1
    77   102   101    2
    78     6     7   ar
    79   109   110    1
    80    11    12    1
    81    11     9   ar
    82   110   113    1
    83   110   111    1
    84     7     9   ar
    85   113   114    1
    86    68    69    2
    87   111   112    2
    88    97    96    1
    89   128   126    1
    90    90    88   am
    91    98    96    1
    92   127   126    1
    93   126   125    2
    94    96    95    1
    95    95    92    1
    96    87    88    1
    97    87    84    1
    98    88    89    2
    99   125   124    1
   100    92    91    1
   101    92    93    1
   102    83    84    1
   103    83    77   am
   104    84    85    1
   105   124   123    1
   106    94    93    2
   107    76    75    1
   108    76    77    1
   109    76    79    1
   110    80    79    1
   111    80    82    1
   112    77    78    2
   113    81    79    1
   114    86    85    2
   115   123   122    1
   116   122   119    1
   117   119   118    1
   118   119   120    1
   119   120   121    2
