@<TRIPOS>MOLECULE
tmp/3ci3A02.pdb
 159 153 0 0 0
SMALL
GASTEIGER

@<TRIPOS>ATOM
      1  N         17.8830  -25.4260    2.5400 N.3     1  VAL1       -0.1231
      2  CA        16.8390  -24.7270    1.7300 C.3     1  VAL1        0.1692
      3  C         17.2010  -23.2690    1.4970 C.2     1  VAL1        0.2592
      4  O         17.4380  -22.5130    2.4490 O.2     1  VAL1       -0.2718
      5  CB        15.4380  -24.7430    2.3850 C.3     1  VAL1        0.0266
      6  CG1       14.4060  -24.0120    1.5330 C.3     1  VAL1        0.0020
      7  CG2       14.9880  -26.1970    2.5410 C.3     1  VAL1        0.0020
      8  N         17.2450  -22.8770    0.2240 N.am    2  LYS2       -0.1966
      9  CA        17.5110  -21.4770   -0.1300 C.3     2  LYS2        0.1728
     10  C         16.3140  -20.9660   -0.8890 C.2     2  LYS2        0.2616
     11  O         16.0600  -21.3400   -2.0520 O.2     2  LYS2       -0.2715
     12  CB        18.7840  -21.2450   -0.9510 C.3     2  LYS2        0.0311
     13  CG        20.0330  -21.4530   -0.1300 C.3     2  LYS2        0.0038
     14  CD        21.2450  -20.9390   -0.8890 C.3     2  LYS2        0.0206
     15  CE        22.5420  -21.1770   -0.1210 C.3     2  LYS2        0.1093
     16  NZ        22.6680  -22.5860    0.3610 N.3     2  LYS2       -0.1314
     17  N         15.5850  -20.0300   -0.2550 N.am    3  ILE3       -0.1977
     18  CA        14.4400  -19.4600   -0.9660 C.3     3  ILE3        0.1596
     19  C         14.8910  -18.5610   -2.1010 C.2     3  ILE3        0.2287
     20  O         14.0730  -18.2780   -2.9640 O.2     3  ILE3       -0.2864
     21  CB        13.5140  -18.7010    0.0060 C.3     3  ILE3        0.0276
     22  CG1       14.2450  -17.5680    0.7390 C.3     3  ILE3        0.0022
     23  CG2       12.8830  -19.6810    1.0050 C.3     3  ILE3        0.0022
     24  CD1       13.3380  -16.6820    1.6180 C.3     3  ILE3        0.0001
     25  N         16.7140  -18.5200   -5.2650 N.3     5  THR5       -0.1218
     26  CA        17.2690  -19.3190   -6.3490 C.3     5  THR5        0.1862
     27  C         18.1240  -18.4770   -7.2840 C.2     5  THR5        0.2287
     28  O         18.9780  -19.0340   -8.0430 O.2     5  THR5       -0.2866
     29  CB        16.1690  -19.9750   -7.1690 C.3     5  THR5        0.1770
     30  OG1       15.5150  -19.0050   -7.9990 O.3     5  THR5       -0.2211
     31  CG2       15.1370  -20.7310   -6.3060 C.3     5  THR5        0.0375
     32  N         17.1080  -17.2340   -9.9120 N.3     7  ASN7       -0.1240
     33  CA        16.5500  -17.3500  -11.2540 C.3     7  ASN7        0.1653
     34  C         15.7210  -16.1580  -11.6750 C.2     7  ASN7        0.2266
     35  O         15.5120  -15.9290  -12.8920 O.2     7  ASN7       -0.2867
     36  CB        15.7530  -18.6200  -11.4090 C.3     7  ASN7        0.1155
     37  CG        16.6480  -19.8370  -11.2990 C.2     7  ASN7        0.2627
     38  OD1       17.7950  -19.8080  -11.7470 O.2     7  ASN7       -0.2716
     39  ND2       16.1630  -20.8580  -10.7010 N.am    7  ASN7       -0.0877
     40  N         10.1140  -14.8480  -14.2390 N.3    13  THR13      -0.1203
     41  CA         9.7250  -15.7360  -13.1560 C.3    13  THR13       0.1994
     42  C          8.8440  -16.8390  -13.7200 C.2    13  THR13       0.2618
     43  O          8.1450  -16.7030  -14.7080 O.2    13  THR13      -0.2717
     44  CB         9.0140  -14.9380  -12.0270 C.3    13  THR13       0.1784
     45  OG1        9.0180  -15.6920  -10.8010 O.3    13  THR13      -0.2211
     46  CG2        7.6240  -14.4800  -12.4050 C.3    13  THR13       0.0376
     47  N          8.8350  -17.9570  -13.0340 N.am   14  ARG14      -0.1965
     48  CA         8.0000  -19.1040  -13.3820 C.3    14  ARG14       0.1729
     49  C          6.6200  -18.9590  -12.7940 C.2    14  ARG14       0.2616
     50  O          6.4420  -18.4900  -11.6010 O.2    14  ARG14      -0.2715
     51  CB         8.6200  -20.3370  -12.7290 C.3    14  ARG14       0.0348
     52  CG         9.9500  -20.7570  -13.3110 C.3    14  ARG14       0.0492
     53  CD         9.7910  -21.5920  -14.5720 C.3    14  ARG14       0.2205
     54  NE         8.9990  -22.7800  -14.2690 N.pl3  14  ARG14      -0.0865
     55  CZ         9.4810  -23.9810  -13.9380 C.cat  14  ARG14       0.5346
     56  NH1       10.7720  -24.2340  -13.8240 N.pl3  14  ARG14       0.1354
     57  NH2        8.6210  -24.9550  -13.6910 N.pl3  14  ARG14       0.1354
     58  N          5.6340  -19.3050  -13.6080 N.am   15  ILE15      -0.1963
     59  CA         4.2170  -19.3700  -13.1120 C.3    15  ILE15       0.1727
     60  C          3.8950  -20.8430  -12.8640 C.2    15  ILE15       0.2616
     61  O          4.7960  -21.6930  -12.8890 O.2    15  ILE15      -0.2715
     62  CB         3.2600  -18.6520  -14.0370 C.3    15  ILE15       0.0290
     63  CG1        3.1810  -19.2730  -15.4480 C.3    15  ILE15       0.0022
     64  CG2        3.6300  -17.1370  -14.1070 C.3    15  ILE15       0.0023
     65  CD1        2.0420  -18.7570  -16.2460 C.3    15  ILE15       0.0001
     66  N          2.6120  -21.1480  -12.6530 N.am   16  ILE16      -0.1963
     67  CA         2.1390  -22.5240  -12.6210 C.3    16  ILE16       0.1727
     68  C          2.2080  -23.1370  -14.0110 C.2    16  ILE16       0.2616
     69  O          1.7330  -22.5380  -15.0160 O.2    16  ILE16      -0.2715
     70  CB         0.7570  -22.6260  -12.0110 C.3    16  ILE16       0.0290
     71  CG1        0.8280  -22.3240  -10.5160 C.3    16  ILE16       0.0022
     72  CG2        0.1640  -24.0260  -12.2950 C.3    16  ILE16       0.0023
     73  CD1        1.3470  -23.4390   -9.6510 C.3    16  ILE16       0.0001
     74  N          2.8210  -24.3490  -14.0350 N.am   17  GLY17      -0.1955
     75  CA         3.0920  -24.9590  -15.3160 C.3    17  GLY17       0.1869
     76  C          4.5060  -24.5730  -15.8100 C.2    17  GLY17       0.2309
     77  O          5.3780  -24.2820  -15.0260 O.2    17  GLY17      -0.2863
     78  N         -1.6520  -11.9240   -9.3810 N.3    31  TYR31      -0.1227
     79  CA        -1.5030  -12.7000   -8.1620 C.3    31  TYR31       0.1736
     80  C         -0.5250  -12.0360   -7.2110 C.2    31  TYR31       0.2596
     81  O         -0.6530  -12.2540   -5.9750 O.2    31  TYR31      -0.2718
     82  CB        -1.2410  -14.1920   -8.4340 C.3    31  TYR31       0.0548
     83  CG         0.0420  -14.5660   -9.0940 C.ar   31  TYR31      -0.0200
     84  CD1        1.1840  -14.7310   -8.3330 C.ar   31  TYR31      -0.0009
     85  CD2        0.0920  -14.9060  -10.4510 C.ar   31  TYR31      -0.0009
     86  CE1        2.3990  -15.1390   -8.9500 C.ar   31  TYR31       0.0417
     87  CE2        1.3050  -15.3100  -11.0560 C.ar   31  TYR31       0.0417
     88  CZ         2.4290  -15.4320  -10.3140 C.ar   31  TYR31       0.1957
     89  OH         3.6230  -15.8290  -10.9290 O.3    31  TYR31      -0.2866
     90  N          0.3620  -11.1880   -7.6780 N.am   32  GLY32      -0.1957
     91  CA         1.1790  -10.4200   -6.7520 C.3    32  GLY32       0.1869
     92  C          0.3360   -9.4420   -5.9360 C.2    32  GLY32       0.2309
     93  O          0.5890   -9.2990   -4.6960 O.2    32  GLY32      -0.2863
     94  N         -2.8240   -9.8490   -5.1590 N.3    34  VAL34      -0.1231
     95  CA        -3.5340  -10.6800   -4.2140 C.3    34  VAL34       0.1692
     96  C         -2.6530  -11.0110   -3.0120 C.2    34  VAL34       0.2592
     97  O         -3.1330  -11.0600   -1.8660 O.2    34  VAL34      -0.2718
     98  CB        -4.1350  -11.9230   -4.8970 C.3    34  VAL34       0.0266
     99  CG1       -4.6850  -12.9250   -3.8820 C.3    34  VAL34       0.0020
    100  CG2       -5.2560  -11.4640   -5.8710 C.3    34  VAL34       0.0020
    101  N         -1.3620  -11.2880   -3.2430 N.am   35  ASP35      -0.1974
    102  CA        -0.4330  -11.5530   -2.1520 C.3    35  ASP35       0.1709
    103  C         -0.2530  -10.3150   -1.2720 C.2    35  ASP35       0.2293
    104  O         -0.2070  -10.4410   -0.0220 O.2    35  ASP35      -0.2864
    105  CB         0.9020  -12.0140   -2.7730 C.3    35  ASP35       0.1436
    106  CG         1.9300  -12.5210   -1.7760 C.2    35  ASP35       0.3671
    107  OD1        1.5410  -13.0280   -0.6720 O.co2  35  ASP35      -0.2456
    108  OD2        3.1280  -12.4350   -2.1150 O.co2  35  ASP35      -0.2456
    109  N         -5.1100  -17.4240   -0.8820 N.3    67  PHE67      -0.1241
    110  CA        -4.1990  -18.3860   -1.5220 C.3    67  PHE67       0.1605
    111  C         -4.9000  -19.2110   -2.5860 C.2    67  PHE67       0.2264
    112  O         -4.3340  -19.4490   -3.6810 O.2    67  PHE67      -0.2867
    113  CB        -3.5840  -19.3420   -0.4900 C.3    67  PHE67       0.0534
    114  CG        -2.3170  -18.8460    0.1350 C.ar   67  PHE67      -0.0203
    115  CD1       -2.3470  -18.3500    1.4220 C.ar   67  PHE67      -0.0042
    116  CD2       -1.0980  -18.9480   -0.5110 C.ar   67  PHE67      -0.0042
    117  CE1       -1.1360  -17.9440    2.0110 C.ar   67  PHE67      -0.0003
    118  CE2        0.0650  -18.5160    0.0660 C.ar   67  PHE67      -0.0003
    119  CZ         0.0360  -18.0310    1.3330 C.ar   67  PHE67      -0.0000
    120  N         -5.2070  -16.8990   -5.5850 N.3    70  GLY70      -0.1210
    121  CA        -3.9080  -16.6640   -6.2120 C.3    70  GLY70       0.1956
    122  C         -3.4730  -17.8730   -7.0310 C.2    70  GLY70       0.2611
    123  O         -2.9070  -17.7190   -8.1470 O.2    70  GLY70      -0.2717
    124  N         -3.7030  -19.0750   -6.5220 N.am   71  HIS71      -0.1975
    125  CA        -3.3640  -20.2930   -7.3050 C.3    71  HIS71       0.1656
    126  C         -3.9760  -20.2470   -8.6720 C.2    71  HIS71       0.2291
    127  O         -3.2550  -20.5440   -9.6860 O.2    71  HIS71      -0.2864
    128  CB        -3.8430  -21.5570   -6.5520 C.3    71  HIS71       0.0771
    129  CG        -3.8890  -22.7870   -7.4330 C.ar   71  HIS71       0.0820
    130  ND1       -2.8810  -23.7500   -7.4810 N.ar   71  HIS71      -0.2267
    131  CD2       -4.8050  -23.1460   -8.3570 C.ar   71  HIS71       0.1154
    132  CE1       -3.2270  -24.6580   -8.3960 C.ar   71  HIS71       0.1986
    133  NE2       -4.3900  -24.3230   -8.9200 N.ar   71  HIS71      -0.2212
    134  N         -2.4830  -17.7710  -11.0720 N.3    74  ALA74      -0.1245
    135  CA        -1.1470  -18.1810  -11.5500 C.3    74  ALA74       0.1562
    136  C         -1.2050  -19.3110  -12.5750 C.2    74  ALA74       0.2260
    137  O         -0.1450  -19.7130  -13.1030 O.2    74  ALA74      -0.2867
    138  CB        -0.2980  -18.5730  -10.3990 C.3    74  ALA74       0.0290
    139  N         -1.7060  -29.7500  -17.3440 N.3    81  ARG81      -0.1231
    140  CA        -1.3050  -30.4340  -16.1130 C.3    81  ARG81       0.1694
    141  C         -1.8540  -29.8110  -14.8120 C.2    81  ARG81       0.2592
    142  O         -1.6440  -30.3660  -13.7520 O.2    81  ARG81      -0.2718
    143  CB         0.2210  -30.5210  -16.0370 C.3    81  ARG81       0.0321
    144  CG         0.5920  -31.3970  -14.8060 C.3    81  ARG81       0.0489
    145  CD         2.0440  -31.8290  -14.8850 C.3    81  ARG81       0.2205
    146  NE         2.8880  -30.6410  -14.8690 N.pl3  81  ARG81      -0.0865
    147  CZ         3.4660  -30.0700  -15.9150 C.cat  81  ARG81       0.5346
    148  NH1        3.3910  -30.6070  -17.1420 N.pl3  81  ARG81       0.1354
    149  NH2        4.0630  -28.8860  -15.7870 N.pl3  81  ARG81       0.1354
    150  N         -2.5470  -28.6630  -14.8870 N.am   82  HIS82      -0.1976
    151  CA        -3.0310  -27.9750  -13.6710 C.3    82  HIS82       0.1656
    152  C         -4.3820  -27.4270  -13.9390 C.2    82  HIS82       0.2291
    153  O         -4.6420  -26.9090  -15.0130 O.2    82  HIS82      -0.2864
    154  CB        -2.0810  -26.8450  -13.2560 C.3    82  HIS82       0.0771
    155  CG        -0.7080  -27.3300  -12.9320 C.ar   82  HIS82       0.0820
    156  ND1        0.2900  -27.3510  -13.8700 N.ar   82  HIS82      -0.2267
    157  CD2       -0.1760  -27.8400  -11.8000 C.ar   82  HIS82       0.1154
    158  CE1        1.4000  -27.8220  -13.3270 C.ar   82  HIS82       0.1986
    159  NE2        1.1430  -28.1350  -12.0720 N.ar   82  HIS82      -0.2212
@<TRIPOS>BOND
     1   139   140    1
     2   148   147    1
     3    65    63    1
     4   140   143    1
     5   140   141    1
     6   143   144    1
     7   147   149    1
     8   147   146    2
     9    76    75    1
    10    76    77    2
    11    63    62    1
    12    75    74    1
    13    69    68    2
    14   153   152    2
    15   150   141   am
    16   150   151    1
    17   145   146    1
    18   145   144    1
    19   141   142    2
    20    43    42    2
    21    53    54    1
    22    53    52    1
    23    54    55    2
    24    40    41    1
    25    64    62    1
    26    62    59    1
    27    74    68   am
    28    68    67    1
    29   152   151    1
    30    55    56    1
    31    55    57    1
    32   156   158   ar
    33   156   155   ar
    34    42    41    1
    35    42    47   am
    36   151   154    1
    37    58    59    1
    38    58    49   am
    39    48    47    1
    40    48    49    1
    41    48    51    1
    42   158   159   ar
    43    52    51    1
    44   154   155    1
    45    41    44    1
    46    59    60    1
    47   137   136    2
    48   155   157   ar
    49    35    34    2
    50    61    60    2
    51    60    66   am
    52    49    50    2
    53    66    67    1
    54    67    70    1
    55   136   135    1
    56    46    44    1
    57    72    70    1
    58   159   157   ar
    59    44    45    1
    60    70    71    1
    61    38    37    2
    62    34    33    1
    63   135   134    1
    64   135   138    1
    65    36    37    1
    66    36    33    1
    67    37    39   am
    68    33    32    1
    69    87    85   ar
    70    87    88   ar
    71    89    88    1
    72    71    73    1
    73    85    83   ar
    74    88    86   ar
    75   127   126    2
    76    78    79    1
    77    83    82    1
    78    83    84   ar
    79    86    84   ar
    80   133   132   ar
    81   133   131   ar
    82   126   125    1
    83    82    79    1
    84   132   130   ar
    85   131   129   ar
    86    79    80    1
    87   123   122    2
    88    28    27    2
    89    30    29    1
    90    90    80   am
    91    90    91    1
    92   130   129   ar
    93   129   128    1
    94   125   128    1
    95   125   124    1
    96    27    26    1
    97    80    81    2
    98    29    26    1
    99    29    31    1
   100   122   124   am
   101   122   121    1
   102    91    92    1
   103    26    25    1
   104   121   120    1
   105    92    93    2
   106   100    98    1
   107    94    95    1
   108    98    95    1
   109    98    99    1
   110    95    96    1
   111   112   111    2
   112   101    96   am
   113   101   102    1
   114    96    97    2
   115    20    19    2
   116   105   102    1
   117   105   106    1
   118   111   110    1
   119   102   103    1
   120   108   106   ar
   121    19    18    1
   122    11    10    2
   123   106   107   ar
   124   110   109    1
   125   110   113    1
   126   103   104    2
   127    18    17    1
   128    18    21    1
   129    12     9    1
   130    12    13    1
   131    10    17   am
   132    10     9    1
   133    14    13    1
   134    14    15    1
   135   116   118   ar
   136   116   114   ar
   137   113   114    1
   138     9     8    1
   139    15    16    1
   140    21    22    1
   141    21    23    1
   142   118   119   ar
   143   114   115   ar
   144     8     3   am
   145    22    24    1
   146   119   117   ar
   147   115   117   ar
   148     3     2    1
   149     3     4    2
   150     6     5    1
   151     2     5    1
   152     2     1    1
   153     5     7    1
