@<TRIPOS>MOLECULE
tmp/3ci3A00.pdb
 83 81 0 0 0
SMALL
GASTEIGER

@<TRIPOS>ATOM
      1  N         15.5850  -20.0300   -0.2550 N.3     3  ILE3       -0.1231
      2  CA        14.4400  -19.4600   -0.9660 C.3     3  ILE3        0.1692
      3  C         14.8910  -18.5610   -2.1010 C.2     3  ILE3        0.2592
      4  O         14.0730  -18.2780   -2.9640 O.2     3  ILE3       -0.2718
      5  CB        13.5140  -18.7010    0.0060 C.3     3  ILE3        0.0266
      6  CG1       14.2450  -17.5680    0.7390 C.3     3  ILE3        0.0019
      7  CG2       12.8830  -19.6810    1.0050 C.3     3  ILE3        0.0020
      8  CD1       13.3380  -16.6820    1.6180 C.3     3  ILE3        0.0001
      9  N         16.1540  -18.1150   -2.0840 N.am    4  TYR4       -0.1962
     10  CA        16.7070  -17.3450   -3.1670 C.3     4  TYR4        0.1771
     11  C         17.3560  -18.3150   -4.1640 C.2     4  TYR4        0.2620
     12  O         18.4100  -18.9500   -3.8480 O.2     4  TYR4       -0.2715
     13  CB        17.6470  -16.2570   -2.6810 C.3     4  TYR4        0.0574
     14  CG        18.8360  -16.6860   -1.8300 C.ar    4  TYR4       -0.0198
     15  CD1       20.1070  -16.8370   -2.4110 C.ar    4  TYR4       -0.0009
     16  CD2       18.6970  -16.8550   -0.4610 C.ar    4  TYR4       -0.0009
     17  CE1       21.2030  -17.1980   -1.6190 C.ar    4  TYR4        0.0417
     18  CE2       19.7450  -17.2290    0.3130 C.ar    4  TYR4        0.0417
     19  CZ        21.0020  -17.3950   -0.2560 C.ar    4  TYR4        0.1957
     20  OH        22.0900  -17.7440    0.5320 O.3     4  TYR4       -0.2866
     21  N         16.7140  -18.5200   -5.2650 N.am    5  THR5       -0.1937
     22  CA        17.2690  -19.3190   -6.3490 C.3     5  THR5        0.2028
     23  C         18.1240  -18.4770   -7.2840 C.2     5  THR5        0.2642
     24  O         18.9780  -19.0340   -8.0430 O.2     5  THR5       -0.2714
     25  CB        16.1690  -19.9750   -7.1690 C.3     5  THR5        0.1808
     26  OG1       15.5150  -19.0050   -7.9990 O.3     5  THR5       -0.2208
     27  CG2       15.1370  -20.7310   -6.3060 C.3     5  THR5        0.0379
     28  N         17.9200  -17.1550   -7.3000 N.am    6  LYS6       -0.1963
     29  CA        18.4970  -16.1950   -8.2370 C.3     6  LYS6        0.1728
     30  C         17.9790  -16.3210   -9.6480 C.2     6  LYS6        0.2616
     31  O         18.3450  -15.4950  -10.4910 O.2     6  LYS6       -0.2715
     32  CB        20.0310  -16.2220   -8.2540 C.3     6  LYS6        0.0311
     33  CG        20.6190  -16.2730   -6.8510 C.3     6  LYS6        0.0038
     34  CD        22.1470  -16.0800   -6.9220 C.3     6  LYS6        0.0206
     35  CE        22.8200  -16.3170   -5.5800 C.3     6  LYS6        0.1093
     36  NZ        24.2830  -15.9780   -5.6760 N.3     6  LYS6       -0.1314
     37  N         17.1080  -17.2340   -9.9120 N.am    7  ASN7       -0.1958
     38  CA        16.5500  -17.3500  -11.2540 C.3     7  ASN7        0.1819
     39  C         15.7210  -16.1580  -11.6750 C.2     7  ASN7        0.2622
     40  O         15.5120  -15.9290  -12.8920 O.2     7  ASN7       -0.2715
     41  CB        15.7530  -18.6200  -11.4090 C.3     7  ASN7        0.1195
     42  CG        16.6480  -19.8370  -11.2990 C.2     7  ASN7        0.2630
     43  OD1       17.7950  -19.8080  -11.7470 O.2     7  ASN7       -0.2716
     44  ND2       16.1630  -20.8580  -10.7010 N.am    7  ASN7       -0.0877
     45  N         15.2590  -15.3340  -10.7220 N.am    8  GLY8       -0.1940
     46  CA        14.5040  -14.1180  -11.0160 C.3     8  GLY8        0.2014
     47  C         15.3500  -12.9150  -11.2390 C.2     8  GLY8        0.2638
     48  O         14.8120  -11.8260  -11.4550 O.2     8  GLY8       -0.2714
     49  N         16.6670  -13.0610  -11.1600 N.am    9  ASP9       -0.1971
     50  CA        17.5000  -11.8690  -11.1380 C.3     9  ASP9        0.1709
     51  C         17.5580  -11.0670  -12.4390 C.2     9  ASP9        0.2293
     52  O         17.9580   -9.9060  -12.4100 O.2     9  ASP9       -0.2864
     53  CB        18.9880  -12.1860  -10.7860 C.3     9  ASP9        0.1436
     54  CG        19.2350  -12.3950   -9.3120 C.2     9  ASP9        0.3671
     55  OD1       18.2910  -12.1670   -8.4560 O.co2   9  ASP9       -0.2456
     56  OD2       20.3530  -12.7900   -8.9120 O.co2   9  ASP9       -0.2456
     57  N         10.1140  -14.8480  -14.2390 N.3    13  THR13      -0.1203
     58  CA         9.7250  -15.7360  -13.1560 C.3    13  THR13       0.1993
     59  C          8.8440  -16.8390  -13.7200 C.2    13  THR13       0.2614
     60  O          8.1450  -16.7030  -14.7080 O.2    13  THR13      -0.2717
     61  CB         9.0140  -14.9380  -12.0270 C.3    13  THR13       0.1784
     62  OG1        9.0180  -15.6920  -10.8010 O.3    13  THR13      -0.2211
     63  CG2        7.6240  -14.4800  -12.4050 C.3    13  THR13       0.0376
     64  N          8.8350  -17.9570  -13.0340 N.am   14  ARG14      -0.2032
     65  CA         8.0000  -19.1040  -13.3820 C.3    14  ARG14       0.1283
     66  C          6.6200  -18.9590  -12.7940 C.3    14  ARG14       0.2036
     67  O          6.4420  -18.4900  -11.6010 O.3    14  ARG14      -0.2185
     68  CB         8.6200  -20.3370  -12.7290 C.3    14  ARG14       0.0281
     69  CG         9.9500  -20.7570  -13.3110 C.3    14  ARG14       0.0488
     70  CD         9.7910  -21.5920  -14.5720 C.3    14  ARG14       0.2205
     71  NE         8.9990  -22.7800  -14.2690 N.pl3  14  ARG14      -0.0865
     72  CZ         9.4810  -23.9810  -13.9380 C.cat  14  ARG14       0.5346
     73  NH1       10.7720  -24.2340  -13.8240 N.pl3  14  ARG14       0.1354
     74  NH2        8.6210  -24.9550  -13.6910 N.pl3  14  ARG14       0.1354
     75  N          8.2890  -10.1730  -14.8540 N.3    23  LYS23      -0.1245
     76  CA         7.6630   -9.9060  -13.5420 C.3    23  LYS23       0.1561
     77  C          6.5840   -8.8540  -13.6580 C.2    23  LYS23       0.2260
     78  O          5.6980   -8.8310  -12.7500 O.2    23  LYS23      -0.2867
     79  CB         8.6760   -9.5620  -12.4760 C.3    23  LYS23       0.0271
     80  CG         9.4490  -10.8800  -12.0680 C.3    23  LYS23       0.0035
     81  CD        10.6270  -10.5670  -11.1830 C.3    23  LYS23       0.0206
     82  CE        11.2640  -11.8630  -10.6280 C.3    23  LYS23       0.1093
     83  NZ        12.4560  -11.6400   -9.8490 N.3    23  LYS23      -0.1314
@<TRIPOS>BOND
     1    75    76    1
     2    60    59    2
     3    70    71    1
     4    70    69    1
     5    71    72    2
     6    57    58    1
     7    72    73    1
     8    72    74    1
     9    59    58    1
    10    59    64   am
    11    77    76    1
    12    77    78    2
    13    76    79    1
    14    65    64    1
    15    65    66    1
    16    65    68    1
    17    69    68    1
    18    58    61    1
    19    40    39    2
    20    66    67    1
    21    79    80    1
    22    51    52    2
    23    51    50    1
    24    63    61    1
    25    80    81    1
    26    61    62    1
    27    43    42    2
    28    39    38    1
    29    39    45   am
    30    48    47    2
    31    41    42    1
    32    41    38    1
    33    42    44   am
    34    38    37    1
    35    47    49   am
    36    47    46    1
    37    81    82    1
    38    49    50    1
    39    50    53    1
    40    46    45    1
    41    53    54    1
    42    82    83    1
    43    31    30    2
    44    37    30   am
    45    30    29    1
    46    54    56   ar
    47    54    55   ar
    48    32    29    1
    49    32    33    1
    50    29    28    1
    51    24    23    2
    52    26    25    1
    53    28    23   am
    54    23    22    1
    55    25    22    1
    56    25    27    1
    57    34    33    1
    58    34    35    1
    59    22    21    1
    60    36    35    1
    61    21    11   am
    62    11    12    2
    63    11    10    1
    64    10    13    1
    65    10     9    1
    66     4     3    2
    67    13    14    1
    68    15    14   ar
    69    15    17   ar
    70     3     9   am
    71     3     2    1
    72    14    16   ar
    73    17    19   ar
    74     2     1    1
    75     2     5    1
    76    16    18   ar
    77    19    18   ar
    78    19    20    1
    79     5     6    1
    80     5     7    1
    81     6     8    1
