@<TRIPOS>MOLECULE
tmp/3ci4A01.pdb
 156 150 0 0 0
SMALL
GASTEIGER

@<TRIPOS>ATOM
      1  N         52.2000   -5.9960    2.2980 N.3     1  VAL1       -0.1231
      2  CA        50.9170   -5.2980    1.9100 C.3     1  VAL1        0.1692
      3  C         51.1610   -3.8010    1.6360 C.2     1  VAL1        0.2592
      4  O         51.1990   -3.0030    2.5800 O.2     1  VAL1       -0.2718
      5  CB        49.8160   -5.3880    2.9920 C.3     1  VAL1        0.0266
      6  CG1       48.5430   -4.6630    2.5660 C.3     1  VAL1        0.0020
      7  CG2       49.4740   -6.8620    3.2200 C.3     1  VAL1        0.0020
      8  N         51.3620   -3.4350    0.3610 N.am    2  LYS2       -0.1966
      9  CA        51.5530   -2.0270   -0.0430 C.3     2  LYS2        0.1728
     10  C         50.3480   -1.5020   -0.8150 C.2     2  LYS2        0.2616
     11  O         50.0640   -1.9300   -1.9420 O.2     2  LYS2       -0.2715
     12  CB        52.8560   -1.7930   -0.8410 C.3     2  LYS2        0.0311
     13  CG        54.0390   -1.9710    0.1480 C.3     2  LYS2        0.0038
     14  CD        55.2960   -1.5350   -0.5990 C.3     2  LYS2        0.0206
     15  CE        56.3690   -2.5980   -0.3400 C.3     2  LYS2        0.1093
     16  NZ        55.7250   -3.9240   -0.6690 N.3     2  LYS2       -0.1314
     17  N         49.6280   -0.5730   -0.1990 N.am    3  ILE3       -0.1977
     18  CA        48.4990    0.0570   -0.8840 C.3     3  ILE3        0.1596
     19  C         48.9420    0.9490   -2.0490 C.2     3  ILE3        0.2287
     20  O         48.1650    1.1760   -2.9710 O.2     3  ILE3       -0.2864
     21  CB        47.5450    0.8160    0.0880 C.3     3  ILE3        0.0276
     22  CG1       48.2610    1.9910    0.7740 C.3     3  ILE3        0.0022
     23  CG2       46.9390   -0.1690    1.0980 C.3     3  ILE3        0.0022
     24  CD1       47.3450    2.8560    1.6370 C.3     3  ILE3        0.0001
     25  N         50.8090    1.1770   -5.3650 N.3     5  THR5       -0.1218
     26  CA        51.3200    0.3650   -6.4610 C.3     5  THR5        0.1862
     27  C         52.1690    1.1970   -7.4310 C.2     5  THR5        0.2287
     28  O         52.9970    0.6310   -8.1650 O.2     5  THR5       -0.2866
     29  CB        50.1660   -0.3020   -7.2770 C.3     5  THR5        0.1770
     30  OG1       49.5130    0.6780   -8.1090 O.3     5  THR5       -0.2211
     31  CG2       49.1230   -0.9670   -6.3290 C.3     5  THR5        0.0375
     32  N         51.1850    2.4120  -10.0870 N.3     7  ASN7       -0.1240
     33  CA        50.5980    2.2550  -11.4150 C.3     7  ASN7        0.1653
     34  C         49.7450    3.4580  -11.8760 C.2     7  ASN7        0.2266
     35  O         49.6150    3.7170  -13.0780 O.2     7  ASN7       -0.2867
     36  CB        49.8150    0.9370  -11.5160 C.3     7  ASN7        0.1155
     37  CG        50.7160   -0.3060  -11.4230 C.2     7  ASN7        0.2627
     38  OD1       51.8490   -0.3130  -11.9190 O.2     7  ASN7       -0.2716
     39  ND2       50.1960   -1.3740  -10.8060 N.am    7  ASN7       -0.0877
     40  N         44.1360    4.6250  -14.5040 N.3    13  THR13      -0.1203
     41  CA        43.7520    3.7690  -13.3790 C.3    13  THR13       0.1994
     42  C         42.7950    2.6880  -13.8660 C.2    13  THR13       0.2618
     43  O         42.1440    2.8680  -14.8800 O.2    13  THR13      -0.2717
     44  CB        43.1250    4.6200  -12.2230 C.3    13  THR13       0.1784
     45  OG1       43.0730    3.8440  -11.0200 O.3    13  THR13      -0.2211
     46  CG2       41.7030    5.1420  -12.5850 C.3    13  THR13       0.0376
     47  N         42.7100    1.5650  -13.1540 N.am   14  ARG14      -0.1965
     48  CA        41.7870    0.5060  -13.5380 C.3    14  ARG14       0.1729
     49  C         40.4030    0.7570  -12.9890 C.2    14  ARG14       0.2616
     50  O         40.2460    1.2950  -11.8730 O.2    14  ARG14      -0.2715
     51  CB        42.2640   -0.8510  -13.0240 C.3    14  ARG14       0.0348
     52  CG        43.3520   -1.5380  -13.8370 C.3    14  ARG14       0.0492
     53  CD        42.7930   -2.2230  -15.0360 C.3    14  ARG14       0.2205
     54  NE        42.2080   -3.5140  -14.7010 N.pl3  14  ARG14      -0.0865
     55  CZ        42.9280   -4.6180  -14.5260 C.cat  14  ARG14       0.5346
     56  NH1       44.2190   -4.6610  -14.8370 N.pl3  14  ARG14       0.1354
     57  NH2       42.3320   -5.7200  -14.0770 N.pl3  14  ARG14       0.1354
     58  N         39.3860    0.3540  -13.7570 N.am   15  ILE15      -0.1963
     59  CA        38.0270    0.2550  -13.2150 C.3    15  ILE15       0.1727
     60  C         37.7120   -1.2300  -12.9790 C.2    15  ILE15       0.2616
     61  O         38.6160   -2.0640  -13.0280 O.2    15  ILE15      -0.2715
     62  CB        36.9610    0.9750  -14.1150 C.3    15  ILE15       0.0290
     63  CG1       36.9180    0.3770  -15.5260 C.3    15  ILE15       0.0022
     64  CG2       37.2110    2.4810  -14.1160 C.3    15  ILE15       0.0023
     65  CD1       35.8150    0.9160  -16.4320 C.3    15  ILE15       0.0001
     66  N         36.4540   -1.5730  -12.7120 N.am   16  ILE16      -0.1963
     67  CA        36.0760   -2.9860  -12.6220 C.3    16  ILE16       0.1727
     68  C         36.0790   -3.5820  -14.0400 C.2    16  ILE16       0.2616
     69  O         35.5660   -2.9630  -14.9870 O.2    16  ILE16      -0.2715
     70  CB        34.7200   -3.1800  -11.9080 C.3    16  ILE16       0.0290
     71  CG1       34.8920   -2.8490  -10.4210 C.3    16  ILE16       0.0022
     72  CG2       34.1920   -4.6170  -12.1050 C.3    16  ILE16       0.0023
     73  CD1       33.6210   -2.9460   -9.5910 C.3    16  ILE16       0.0001
     74  N         36.6790   -4.7630  -14.1890 N.am   17  GLY17      -0.1955
     75  CA        36.9490   -5.3030  -15.5290 C.3    17  GLY17       0.1869
     76  C         38.3400   -4.8630  -15.9760 C.2    17  GLY17       0.2309
     77  O         39.1340   -4.4110  -15.1500 O.2    17  GLY17      -0.2863
     78  N         32.1730    7.6520   -9.3720 N.3    31  TYR31      -0.1227
     79  CA        32.3310    6.9000   -8.1460 C.3    31  TYR31       0.1736
     80  C         33.3330    7.5520   -7.1980 C.2    31  TYR31       0.2596
     81  O         33.2610    7.3420   -6.0020 O.2    31  TYR31      -0.2718
     82  CB        32.5660    5.3920   -8.3470 C.3    31  TYR31       0.0548
     83  CG        33.8340    4.9520   -9.0910 C.ar   31  TYR31      -0.0200
     84  CD1       35.0270    4.7210   -8.4000 C.ar   31  TYR31      -0.0009
     85  CD2       33.7970    4.6790  -10.4630 C.ar   31  TYR31      -0.0009
     86  CE1       36.1630    4.2760   -9.0740 C.ar   31  TYR31       0.0417
     87  CE2       34.9180    4.2070  -11.1430 C.ar   31  TYR31       0.0417
     88  CZ        36.0970    4.0140  -10.4450 C.ar   31  TYR31       0.1957
     89  OH        37.2260    3.5750  -11.1090 O.3    31  TYR31      -0.2866
     90  N         34.2110    8.3990   -7.7300 N.am   32  GLY32      -0.1957
     91  CA        35.0600    9.2450   -6.8800 C.3    32  GLY32       0.1869
     92  C         34.2620   10.2080   -5.9990 C.2    32  GLY32       0.2309
     93  O         34.6070   10.4220   -4.8340 O.2    32  GLY32      -0.2863
     94  N         31.1040    9.8140   -5.1480 N.3    34  VAL34      -0.1231
     95  CA        30.3900    8.9170   -4.2350 C.3    34  VAL34       0.1692
     96  C         31.2760    8.5560   -3.0300 C.2    34  VAL34       0.2592
     97  O         30.8080    8.5480   -1.9100 O.2    34  VAL34      -0.2718
     98  CB        29.8090    7.6470   -4.9830 C.3    34  VAL34       0.0266
     99  CG1       29.2260    6.6440   -4.0050 C.3    34  VAL34       0.0020
    100  CG2       28.7140    8.0710   -5.9880 C.3    34  VAL34       0.0020
    101  N         32.5640    8.3250   -3.2700 N.am   35  ASP35      -0.1974
    102  CA        33.5460    8.0340   -2.2160 C.3    35  ASP35       0.1709
    103  C         33.7630    9.2500   -1.2930 C.2    35  ASP35       0.2293
    104  O         33.8290    9.1060   -0.0620 O.2    35  ASP35      -0.2864
    105  CB        34.8690    7.5900   -2.8740 C.3    35  ASP35       0.1436
    106  CG        35.8950    7.0870   -1.8870 C.2    35  ASP35       0.3671
    107  OD1       35.5250    6.6330   -0.7850 O.co2  35  ASP35      -0.2456
    108  OD2       37.1000    7.1230   -2.2350 O.co2  35  ASP35      -0.2456
    109  N         26.4150    3.1380   -0.1820 N.3    66  LEU66      -0.1231
    110  CA        27.1950    3.9350   -1.1440 C.3    66  LEU66       0.1693
    111  C         28.2940    3.1160   -1.8130 C.2    66  LEU66       0.2592
    112  O         28.6520    3.3750   -2.9880 O.2    66  LEU66      -0.2718
    113  CB        27.7710    5.1900   -0.4860 C.3    66  LEU66       0.0284
    114  CG        26.7210    6.2270   -0.0990 C.3    66  LEU66       0.0019
    115  CD1       27.4020    7.3620    0.6720 C.3    66  LEU66       0.0001
    116  CD2       25.9510    6.7360   -1.3370 C.3    66  LEU66       0.0001
    117  N         28.8290    2.1400   -1.0710 N.am   67  PHE67      -0.1976
    118  CA        29.7870    1.1970   -1.6250 C.3    67  PHE67       0.1639
    119  C         29.1060    0.3570   -2.7050 C.2    67  PHE67       0.2290
    120  O         29.6840    0.1540   -3.7820 O.2    67  PHE67      -0.2864
    121  CB        30.3620    0.2790   -0.5560 C.3    67  PHE67       0.0560
    122  CG        31.6430    0.7640    0.0620 C.ar   67  PHE67      -0.0200
    123  CD1       31.6450    1.2930    1.3410 C.ar   67  PHE67      -0.0042
    124  CD2       32.8570    0.6640   -0.6240 C.ar   67  PHE67      -0.0042
    125  CE1       32.8240    1.7140    1.9330 C.ar   67  PHE67      -0.0003
    126  CE2       34.0360    1.0920   -0.0440 C.ar   67  PHE67      -0.0003
    127  CZ        34.0230    1.6250    1.2360 C.ar   67  PHE67      -0.0000
    128  N         28.6620    2.5730   -5.7580 N.3    70  GLY70      -0.1210
    129  CA        29.9240    2.8700   -6.3980 C.3    70  GLY70       0.1956
    130  C         30.4520    1.6780   -7.1680 C.2    70  GLY70       0.2611
    131  O         31.0550    1.8490   -8.2150 O.2    70  GLY70      -0.2717
    132  N         30.2430    0.4680   -6.6350 N.am   71  HIS71      -0.1975
    133  CA        30.5530   -0.7550   -7.3800 C.3    71  HIS71       0.1656
    134  C         29.9890   -0.7080   -8.7870 C.2    71  HIS71       0.2291
    135  O         30.7140   -0.9350   -9.7580 O.2    71  HIS71      -0.2864
    136  CB        30.0250   -2.0090   -6.6770 C.3    71  HIS71       0.0771
    137  CG        30.0410   -3.2200   -7.5570 C.ar   71  HIS71       0.0820
    138  ND1       31.0810   -4.1280   -7.5590 N.ar   71  HIS71      -0.2267
    139  CD2       29.1640   -3.6450   -8.4980 C.ar   71  HIS71       0.1154
    140  CE1       30.8290   -5.0720   -8.4510 C.ar   71  HIS71       0.1986
    141  NE2       29.6780   -4.7960   -9.0410 N.ar   71  HIS71      -0.2212
    142  N         31.3430    1.8810  -11.1600 N.3    74  ALA74      -0.1245
    143  CA        32.6580    1.4040  -11.6230 C.3    74  ALA74       0.1562
    144  C         32.6040    0.2630  -12.6520 C.2    74  ALA74       0.2260
    145  O         33.6290   -0.1010  -13.2290 O.2    74  ALA74      -0.2867
    146  CB        33.5220    1.0120  -10.4380 C.3    74  ALA74       0.0290
    147  N         31.4230   -9.0840  -14.9800 N.3    82  HIS82      -0.1241
    148  CA        30.9510   -8.3950  -13.7860 C.3    82  HIS82       0.1621
    149  C         29.5560   -7.8300  -14.0180 C.2    82  HIS82       0.2264
    150  O         29.2510   -7.3400  -15.1070 O.2    82  HIS82      -0.2867
    151  CB        31.9420   -7.3040  -13.3740 C.3    82  HIS82       0.0745
    152  CG        33.3540   -7.7890  -13.2110 C.ar   82  HIS82       0.0817
    153  ND1       33.8120   -8.3800  -12.0500 N.ar   82  HIS82      -0.2268
    154  CD2       34.4100   -7.7590  -14.0580 C.ar   82  HIS82       0.1154
    155  CE1       35.0910   -8.6900  -12.1910 C.ar   82  HIS82       0.1986
    156  NE2       35.4800   -8.3120  -13.3960 N.ar   82  HIS82      -0.2212
@<TRIPOS>BOND
     1    65    63    1
     2    76    75    1
     3    76    77    2
     4    75    74    1
     5    63    62    1
     6   150   149    2
     7    53    54    1
     8    53    52    1
     9    69    68    2
    10   147   148    1
    11    43    42    2
    12    56    55    1
    13    54    55    2
    14    55    57    1
    15    40    41    1
    16    74    68   am
    17    64    62    1
    18    62    59    1
    19   154   156   ar
    20   154   152   ar
    21    68    67    1
    22   149   148    1
    23    42    41    1
    24    42    47   am
    25    52    51    1
    26   148   151    1
    27    58    59    1
    28    58    49   am
    29    48    47    1
    30    48    51    1
    31    48    49    1
    32   156   155   ar
    33    41    44    1
    34   151   152    1
    35   145   144    2
    36    59    60    1
    37   152   153   ar
    38    35    34    2
    39    61    60    2
    40    49    50    2
    41    60    66   am
    42    66    67    1
    43   144   143    1
    44    67    70    1
    45    46    44    1
    46    44    45    1
    47   155   153   ar
    48    72    70    1
    49    38    37    2
    50    70    71    1
    51    34    33    1
    52   143   142    1
    53   143   146    1
    54    36    37    1
    55    36    33    1
    56    37    39   am
    57    33    32    1
    58    87    85   ar
    59    87    88   ar
    60    89    88    1
    61    85    83   ar
    62    88    86   ar
    63    71    73    1
    64   135   134    2
    65    78    79    1
    66    83    84   ar
    67    83    82    1
    68    86    84   ar
    69   141   139   ar
    70   141   140   ar
    71   134   133    1
    72   139   137   ar
    73   140   138   ar
    74    82    79    1
    75   131   130    2
    76    28    27    2
    77    79    80    1
    78    30    29    1
    79    90    80   am
    80    90    91    1
    81   138   137   ar
    82   137   136    1
    83    27    26    1
    84   133   136    1
    85   133   132    1
    86    29    26    1
    87    29    31    1
    88    80    81    2
    89   130   132   am
    90   130   129    1
    91    91    92    1
    92    26    25    1
    93   129   128    1
    94    92    93    2
    95   100    98    1
    96    94    95    1
    97    98    95    1
    98    98    99    1
    99    95    96    1
   100   120   119    2
   101   101    96   am
   102   101   102    1
   103    96    97    2
   104   112   111    2
   105    20    19    2
   106   105   102    1
   107   105   106    1
   108   119   118    1
   109   108   106   ar
   110   102   103    1
   111    19    18    1
   112    11    10    2
   113   106   107   ar
   114   111   110    1
   115   111   117   am
   116   118   117    1
   117   118   121    1
   118   116   114    1
   119   103   104    2
   120   110   113    1
   121   110   109    1
   122    18    17    1
   123    18    21    1
   124    12     9    1
   125    12    13    1
   126    10    17   am
   127    10     9    1
   128    16    15    1
   129   124   126   ar
   130   124   122   ar
   131    14    15    1
   132    14    13    1
   133   121   122    1
   134   113   114    1
   135   114   115    1
   136   126   127   ar
   137     9     8    1
   138   122   123   ar
   139    21    22    1
   140    21    23    1
   141     8     3   am
   142    22    24    1
   143   127   125   ar
   144   123   125   ar
   145     3     2    1
   146     3     4    2
   147     2     1    1
   148     2     5    1
   149     6     5    1
   150     5     7    1
