@<TRIPOS>MOLECULE
tmp/3ci6B00.pdb
 102 94 0 0 0
SMALL
GASTEIGER

@<TRIPOS>ATOM
      1  N         31.1320   17.2870  -15.3970 N.3    20  LEU20      -0.1245
      2  CA        30.5390   18.3190  -16.2240 C.3    20  LEU20       0.1561
      3  C         29.6560   17.7130  -17.3100 C.2    20  LEU20       0.2260
      4  O         28.5230   18.1310  -17.4660 O.2    20  LEU20      -0.2867
      5  CB        31.5970   19.2020  -16.8720 C.3    20  LEU20       0.0270
      6  CG        31.0520   20.2530  -17.8420 C.3    20  LEU20       0.0019
      7  CD1       30.1160   21.2520  -17.1680 C.3    20  LEU20       0.0001
      8  CD2       32.2370   20.9510  -18.5170 C.3    20  LEU20       0.0001
      9  N         28.8130   25.8410  -24.7040 N.3    42  LEU42      -0.1231
     10  CA        29.7220   26.4140  -23.7210 C.3    42  LEU42       0.1693
     11  C         30.7770   27.2600  -24.3950 C.2    42  LEU42       0.2592
     12  O         31.2630   26.9340  -25.4960 O.2    42  LEU42      -0.2718
     13  CB        30.4190   25.3350  -22.8800 C.3    42  LEU42       0.0284
     14  CG        29.4940   24.5380  -21.9630 C.3    42  LEU42       0.0019
     15  CD1       30.3920   23.7080  -21.0380 C.3    42  LEU42       0.0001
     16  CD2       28.5370   25.4670  -21.2040 C.3    42  LEU42       0.0001
     17  N         31.1150   28.3820  -23.7950 N.am   43  LEU43      -0.1966
     18  CA        32.1670   29.2250  -24.3330 C.3    43  LEU43       0.1728
     19  C         33.5240   28.5400  -24.1070 C.2    43  LEU43       0.2616
     20  O         33.9150   28.3130  -22.9670 O.2    43  LEU43      -0.2715
     21  CB        32.0760   30.6230  -23.6900 C.3    43  LEU43       0.0311
     22  CG        32.6160   31.8020  -24.5110 C.3    43  LEU43       0.0022
     23  CD1       32.3070   33.1510  -23.8440 C.3    43  LEU43       0.0001
     24  CD2       34.1120   31.5850  -24.7350 C.3    43  LEU43       0.0001
     25  N         34.2510   28.2620  -25.2060 N.am   44  ASP44      -0.1971
     26  CA        35.5300   27.6000  -25.2800 C.3    44  ASP44       0.1709
     27  C         36.5110   28.7430  -25.4650 C.2    44  ASP44       0.2293
     28  O         36.7040   29.2500  -26.5720 O.2    44  ASP44      -0.2864
     29  CB        35.5250   26.6410  -26.4640 C.3    44  ASP44       0.1436
     30  CG        36.8590   25.9850  -26.6790 C.2    44  ASP44       0.3671
     31  OD1       37.8130   26.3340  -25.9280 O.co2  44  ASP44      -0.2456
     32  OD2       36.9040   25.0970  -27.5390 O.co2  44  ASP44      -0.2456
     33  N         39.5910   28.2530  -27.9740 N.3    47  ASN47      -0.1240
     34  CA        39.2620   28.3500  -29.3940 C.3    47  ASN47       0.1653
     35  C         38.3660   29.5340  -29.7590 C.2    47  ASN47       0.2266
     36  O         37.9630   29.6760  -30.9030 O.2    47  ASN47      -0.2867
     37  CB        38.6270   27.0250  -29.8430 C.3    47  ASN47       0.1155
     38  CG        39.6400   25.8740  -29.8070 C.2    47  ASN47       0.2627
     39  OD1       40.5920   25.8970  -30.5660 O.2    47  ASN47      -0.2716
     40  ND2       39.4520   24.9060  -28.9120 N.am   47  ASN47      -0.0877
     41  N         35.1780   30.4040  -29.2220 N.3    49  ARG49      -0.1245
     42  CA        33.9770   29.9950  -29.8840 C.3    49  ARG49       0.1563
     43  C         33.0460   29.4010  -28.8360 C.2    49  ARG49       0.2260
     44  O         33.4770   29.0300  -27.7500 O.2    49  ARG49      -0.2867
     45  CB        34.2830   28.9110  -30.9270 C.3    49  ARG49       0.0307
     46  CG        34.8180   27.6380  -30.3020 C.3    49  ARG49       0.0489
     47  CD        35.1410   26.5050  -31.2600 C.3    49  ARG49       0.2205
     48  NE        35.5790   25.3230  -30.5070 N.pl3  49  ARG49      -0.0865
     49  CZ        35.8300   24.1390  -31.0670 C.cat  49  ARG49       0.5346
     50  NH1       36.2610   23.1140  -30.3260 N.pl3  49  ARG49       0.1354
     51  NH2       35.6460   23.9800  -32.3730 N.pl3  49  ARG49       0.1354
     52  N         30.8860   26.0330  -28.1760 N.3    51  LEU51      -0.1245
     53  CA        30.8380   24.6550  -28.6490 C.3    51  LEU51       0.1561
     54  C         29.5990   23.9640  -28.1200 C.2    51  LEU51       0.2260
     55  O         29.3020   24.0430  -26.9350 O.2    51  LEU51      -0.2867
     56  CB        32.0810   23.8800  -28.1930 C.3    51  LEU51       0.0270
     57  CG        32.2630   22.4450  -28.6820 C.3    51  LEU51       0.0019
     58  CD1       32.4190   22.3970  -30.2240 C.3    51  LEU51       0.0001
     59  CD2       33.4460   21.8150  -27.9520 C.3    51  LEU51       0.0001
     60  N         30.3260   24.7160  -14.3120 N.3   149  ILE149     -0.1245
     61  CA        31.1860   25.0390  -15.4480 C.3   149  ILE149      0.1561
     62  C         32.4400   25.7760  -14.9980 C.2   149  ILE149      0.2260
     63  O         33.5750   25.4180  -15.3600 O.2   149  ILE149     -0.2867
     64  CB        30.4170   25.8390  -16.4880 C.3   149  ILE149      0.0252
     65  CG1       29.2860   25.0100  -17.0930 C.3   149  ILE149      0.0019
     66  CG2       31.3480   26.3190  -17.6090 C.3   149  ILE149      0.0019
     67  CD1       28.1770   25.8930  -17.7480 C.3   149  ILE149      0.0001
     68  N         34.7700   23.3980  -13.4110 N.3   152  ALA152     -0.1231
     69  CA        35.3670   22.5190  -14.4240 C.3   152  ALA152      0.1694
     70  C         36.5360   23.1860  -15.0820 C.2   152  ALA152      0.2592
     71  O         37.5890   22.5690  -15.3060 O.2   152  ALA152     -0.2718
     72  CB        34.2890   22.1270  -15.4770 C.3   152  ALA152      0.0304
     73  N         36.3740   24.4630  -15.4090 N.am  153  HIS153     -0.1976
     74  CA        37.4730   25.2340  -15.9530 C.3   153  HIS153      0.1656
     75  C         38.6400   25.2940  -14.9600 C.2   153  HIS153      0.2291
     76  O         39.8270   25.1310  -15.3500 O.2   153  HIS153     -0.2864
     77  CB        37.0840   26.6770  -16.2830 C.3   153  HIS153      0.0771
     78  CG        36.2790   26.8460  -17.5330 C.ar  153  HIS153      0.0820
     79  ND1       36.8680   26.8890  -18.7820 N.ar  153  HIS153     -0.2267
     80  CD2       34.9560   27.0830  -17.7300 C.ar  153  HIS153      0.1154
     81  CE1       35.9330   27.1140  -19.6940 C.ar  153  HIS153      0.1986
     82  NE2       34.7580   27.2080  -19.0880 N.ar  153  HIS153     -0.2212
     83  N         40.4260   21.9370  -14.6570 N.3   156  GLY156     -0.1210
     84  CA        40.7100   21.2620  -15.9110 C.3   156  GLY156      0.1956
     85  C         42.1180   21.4850  -16.3690 C.2   156  GLY156      0.2611
     86  O         43.0280   21.7120  -15.5680 O.2   156  GLY156     -0.2717
     87  N         42.3030   21.4060  -17.6770 N.am  157  ASN157     -0.1974
     88  CA        43.6200   21.6520  -18.2240 C.3   157  ASN157      0.1688
     89  C         44.1110   23.0320  -17.8450 C.2   157  ASN157      0.2292
     90  O         43.3100   23.9820  -17.7180 O.2   157  ASN157     -0.2864
     91  CB        43.5730   21.5680  -19.7500 C.3   157  ASN157      0.1181
     92  CG        43.1100   20.1970  -20.2580 C.2   157  ASN157      0.2629
     93  OD1       43.3700   19.1700  -19.6280 O.2   157  ASN157     -0.2716
     94  ND2       42.4710   20.1850  -21.4250 N.am  157  ASN157     -0.0877
     95  N         45.1970   25.8900  -19.0850 N.3   159  ASP159     -0.1239
     96  CA        45.2040   26.6050  -20.3240 C.3   159  ASP159      0.1674
     97  C         44.8460   28.0670  -20.0780 C.2   159  ASP159      0.2266
     98  O         44.7870   28.5780  -18.9350 O.2   159  ASP159     -0.2867
     99  CB        44.2430   25.8990  -21.3030 C.3   159  ASP159      0.1410
    100  CG        42.8520   25.8330  -20.7900 C.2   159  ASP159      0.3668
    101  OD1       42.5490   26.5560  -19.8520 O.co2 159  ASP159     -0.2456
    102  OD2       42.0380   25.0600  -21.3510 O.co2 159  ASP159     -0.2456
@<TRIPOS>BOND
     1    51    49    1
     2    47    48    1
     3    47    46    1
     4    49    48    2
     5    49    50    1
     6    45    46    1
     7    45    42    1
     8    36    35    2
     9    39    38    2
    10    58    57    1
    11    42    41    1
    12    42    43    1
    13    37    38    1
    14    37    34    1
    15    38    40   am
    16    35    34    1
    17    34    33    1
    18    43    44    2
    19    57    56    1
    20    57    59    1
    21    53    56    1
    22    53    52    1
    23    53    54    1
    24    54    55    2
    25    32    30   ar
    26    30    29    1
    27    30    31   ar
    28    28    27    2
    29    29    26    1
    30    12    11    2
    31    27    26    1
    32    26    25    1
    33    25    19   am
    34    24    22    1
    35     9    10    1
    36    22    23    1
    37    22    21    1
    38    11    17   am
    39    11    10    1
    40    18    19    1
    41    18    17    1
    42    18    21    1
    43    19    20    2
    44    10    13    1
    45    13    14    1
    46    14    16    1
    47    14    15    1
    48    94    92   am
    49   102   100   ar
    50    99   100    1
    51    99    96    1
    52   100   101   ar
    53    96    97    1
    54    96    95    1
    55    92    91    1
    56    92    93    2
    57    97    98    2
    58    91    88    1
    59    81    82   ar
    60    81    79   ar
    61    82    80   ar
    62    79    78   ar
    63     8     6    1
    64    88    89    1
    65    88    87    1
    66    89    90    2
    67     6     7    1
    68     6     5    1
    69    67    65    1
    70    80    78   ar
    71    87    85   am
    72    66    64    1
    73    78    77    1
    74     4     3    2
    75     3     2    1
    76    65    64    1
    77     5     2    1
    78    64    61    1
    79    85    84    1
    80    85    86    2
    81    77    74    1
    82     2     1    1
    83    74    73    1
    84    74    75    1
    85    84    83    1
    86    72    69    1
    87    61    62    1
    88    61    60    1
    89    73    70   am
    90    63    62    2
    91    76    75    2
    92    71    70    2
    93    70    69    1
    94    69    68    1
