@<TRIPOS>MOLECULE
tmp/3cifB00.pdb
 96 89 0 0 0
SMALL
GASTEIGER

@<TRIPOS>ATOM
      1  N         53.2780   80.1970   29.3830 N.3   122  PRO122     -0.2116
      2  CA        52.8130   79.1960   30.3370 C.3   122  PRO122      0.1372
      3  C         52.0380   78.1130   29.5900 C.2   122  PRO122      0.2244
      4  O         51.1990   78.4380   28.7480 O.2   122  PRO122     -0.2868
      5  CB        51.8710   79.9850   31.2540 C.3   122  PRO122      0.0268
      6  CG        52.2820   81.3990   31.1100 C.3   122  PRO122      0.0207
      7  CD        52.7550   81.5400   29.6960 C.3   122  PRO122      0.0892
      8  N         55.8570   83.2940   31.3200 N.3   151  SER151     -0.1202
      9  CA        55.4580   84.5220   30.6300 C.3   151  SER151      0.2020
     10  C         56.3670   85.6890   31.0180 C.2   151  SER151      0.2619
     11  O         57.1730   85.5730   31.9440 O.2   151  SER151     -0.2717
     12  CB        53.9940   84.8570   30.9330 C.3   151  SER151      0.2103
     13  OG        53.8090   85.1880   32.3010 O.3   151  SER151     -0.2182
     14  N         56.2450   86.8090   30.3060 N.am  152  SER152     -0.1937
     15  CA        57.0400   88.0000   30.6140 C.3   152  SER152      0.2055
     16  C         56.6840   88.5680   31.9900 C.2   152  SER152      0.2643
     17  O         57.5710   88.9670   32.7510 O.2   152  SER152     -0.2714
     18  CB        56.8800   89.0660   29.5260 C.3   152  SER152      0.2130
     19  OG        55.5600   89.5740   29.5070 O.3   152  SER152     -0.2179
     20  N         55.3890   88.5910   32.3080 N.am  153  THR153     -0.1950
     21  CA        54.9350   89.0600   33.6200 C.3   153  THR153      0.1897
     22  C         55.4410   88.1430   34.7420 C.2   153  THR153      0.2313
     23  O         55.8520   88.6250   35.7960 O.2   153  THR153     -0.2863
     24  CB        53.3980   89.2370   33.6820 C.3   153  THR153      0.1794
     25  OG1       52.9580   89.9880   32.5450 O.3   153  THR153     -0.2208
     26  CG2       52.9850   89.9850   34.9490 C.3   153  THR153      0.0378
     27  N         49.4160   94.0340   36.5130 N.3   177  THR177     -0.1218
     28  CA        50.3500   94.4890   35.4960 C.3   177  THR177      0.1862
     29  C         49.6630   95.4730   34.5490 C.2   177  THR177      0.2287
     30  O         48.6930   95.1230   33.8710 O.2   177  THR177     -0.2866
     31  CB        51.0360   93.3220   34.7250 C.3   177  THR177      0.1770
     32  OG1       51.7630   93.8510   33.6090 O.3   177  THR177     -0.2211
     33  CG2       50.0260   92.2940   34.2280 C.3   177  THR177      0.0375
     34  N         49.8760   96.8110   31.3070 N.3   179  HIS179     -0.1241
     35  CA        50.5220   96.0550   30.2460 C.3   179  HIS179      0.1621
     36  C         50.2510   96.6570   28.8740 C.2   179  HIS179      0.2264
     37  O         49.1080   96.9830   28.5450 O.2   179  HIS179     -0.2867
     38  CB        50.0060   94.6130   30.3010 C.3   179  HIS179      0.0745
     39  CG        50.8460   93.6270   29.5520 C.ar  179  HIS179      0.0817
     40  ND1       50.9420   93.6210   28.1770 N.ar  179  HIS179     -0.2268
     41  CD2       51.5980   92.5880   29.9870 C.ar  179  HIS179      0.1154
     42  CE1       51.7320   92.6330   27.7970 C.ar  179  HIS179      0.1986
     43  NE2       52.1430   91.9910   28.8770 N.ar  179  HIS179     -0.2212
     44  N         49.0360   93.7950   22.8010 N.3   182  THR182     -0.1218
     45  CA        49.6700   92.6620   22.1220 C.3   182  THR182      0.1862
     46  C         48.9180   92.2600   20.8510 C.2   182  THR182      0.2287
     47  O         47.8870   92.8490   20.5150 O.2   182  THR182     -0.2866
     48  CB        49.7980   91.4340   23.0530 C.3   182  THR182      0.1770
     49  OG1       48.5110   91.1010   23.5820 O.3   182  THR182     -0.2211
     50  CG2       50.7600   91.7170   24.2000 C.3   182  THR182      0.0375
     51  N         43.3920   89.3660   31.8860 N.3   212  SER212     -0.1202
     52  CA        44.0130   88.3330   32.7100 C.3   212  SER212      0.2020
     53  C         45.5240   88.3200   32.4980 C.2   212  SER212      0.2619
     54  O         46.0300   88.8670   31.5110 O.2   212  SER212     -0.2717
     55  CB        43.4150   86.9640   32.3910 C.3   212  SER212      0.2103
     56  OG        42.0540   86.9040   32.7910 O.3   212  SER212     -0.2182
     57  N         46.2400   87.7100   33.4380 N.am  213  THR213     -0.1938
     58  CA        47.6850   87.5360   33.3130 C.3   213  THR213      0.2028
     59  C         48.0910   86.0970   33.6170 C.2   213  THR213      0.2643
     60  O         47.5560   85.4690   34.5380 O.2   213  THR213     -0.2714
     61  CB        48.4820   88.5320   34.1990 C.3   213  THR213      0.1808
     62  OG1       49.8850   88.2580   34.0920 O.3   213  THR213     -0.2208
     63  CG2       48.0570   88.4470   35.6680 C.3   213  THR213      0.0379
     64  N         49.0290   85.5820   32.8240 N.am  214  GLY214     -0.1939
     65  CA        49.5790   84.2430   33.0300 C.3   214  GLY214      0.2014
     66  C         50.3150   84.1180   34.3520 C.2   214  GLY214      0.2638
     67  O         50.3500   83.0380   34.9500 O.2   214  GLY214     -0.2714
     68  N         50.8820   85.2350   34.8100 N.am  215  ALA215     -0.1977
     69  CA        51.6620   85.2930   36.0480 C.3   215  ALA215      0.1597
     70  C         50.8410   85.0520   37.3090 C.2   215  ALA215      0.2287
     71  O         51.4020   84.7460   38.3610 O.2   215  ALA215     -0.2864
     72  CB        52.3910   86.6210   36.1490 C.3   215  ALA215      0.0319
     73  N         45.5610   91.8300   34.9150 N.3   234  ALA234     -0.1245
     74  CA        46.2360   92.7760   34.0320 C.3   234  ALA234      0.1562
     75  C         45.3230   93.9430   33.6820 C.2   234  ALA234      0.2260
     76  O         44.1000   93.8220   33.7330 O.2   234  ALA234     -0.2867
     77  CB        46.7080   92.0740   32.7640 C.3   234  ALA234      0.0290
     78  N         45.3070   96.3210   30.3350 N.3   236  ARG236     -0.1245
     79  CA        45.8870   96.6110   29.0210 C.3   236  ARG236      0.1563
     80  C         45.6920   98.0720   28.6160 C.2   236  ARG236      0.2260
     81  O         44.5990   98.6280   28.7660 O.2   236  ARG236     -0.2867
     82  CB        45.3160   95.6690   27.9510 C.3   236  ARG236      0.0307
     83  CG        45.7090   94.1930   28.1180 C.3   236  ARG236      0.0489
     84  CD        47.1920   93.9730   27.8310 C.3   236  ARG236      0.2205
     85  NE        47.6330   92.6100   28.1270 N.pl3 236  ARG236     -0.0865
     86  CZ        47.7440   91.6360   27.2260 C.cat 236  ARG236      0.5346
     87  NH1       47.4430   91.8560   25.9510 N.pl3 236  ARG236      0.1354
     88  NH2       48.1600   90.4340   27.6020 N.pl3 236  ARG236      0.1354
     89  N         58.2690   93.6550   27.8950 N.3   318  ASN318     -0.1240
     90  CA        57.6300   92.3480   27.7270 C.3   318  ASN318      0.1653
     91  C         58.1100   91.5920   26.4910 C.2   318  ASN318      0.2266
     92  O         58.0120   90.3650   26.4270 O.2   318  ASN318     -0.2867
     93  CB        56.0970   92.4600   27.7490 C.3   318  ASN318      0.1155
     94  CG        55.5760   93.6240   26.9240 C.2   318  ASN318      0.2627
     95  OD1       55.6770   94.7810   27.3290 O.2   318  ASN318     -0.2716
     96  ND2       54.9980   93.3190   25.7700 N.am  318  ASN318     -0.0877
@<TRIPOS>BOND
     1    47    46    2
     2    46    45    1
     3    45    44    1
     4    45    48    1
     5    48    49    1
     6    48    50    1
     7    96    94   am
     8    87    86    1
     9    92    91    2
    10    91    90    1
    11    94    95    2
    12    94    93    1
    13    86    88    1
    14    86    85    2
    15    90    93    1
    16    90    89    1
    17    42    40   ar
    18    42    43   ar
    19    84    83    1
    20    84    85    1
    21    82    83    1
    22    82    79    1
    23    40    39   ar
    24    37    36    2
    25    80    81    2
    26    80    79    1
    27     4     3    2
    28    36    35    1
    29    43    41   ar
    30    79    78    1
    31     1     7    1
    32     1     2    1
    33    19    18    1
    34    18    15    1
    35    39    41   ar
    36    39    38    1
    37     3     2    1
    38     7     6    1
    39    35    38    1
    40    35    34    1
    41    14    15    1
    42    14    10   am
    43     2     5    1
    44    15    16    1
    45     9    12    1
    46     9    10    1
    47     9     8    1
    48    12    13    1
    49    10    11    2
    50     6     5    1
    51    54    53    2
    52    51    52    1
    53    16    20   am
    54    16    17    2
    55    20    21    1
    56    55    52    1
    57    55    56    1
    58    53    52    1
    59    53    57   am
    60    25    24    1
    61    77    74    1
    62    64    65    1
    63    64    59   am
    64    65    66    1
    65    58    57    1
    66    58    59    1
    67    58    61    1
    68    32    31    1
    69    59    60    2
    70    21    24    1
    71    21    22    1
    72    24    26    1
    73    75    76    2
    74    75    74    1
    75    30    29    2
    76    74    73    1
    77    62    61    1
    78    61    63    1
    79    33    31    1
    80    66    68   am
    81    66    67    2
    82    29    28    1
    83    31    28    1
    84    22    23    2
    85    68    69    1
    86    28    27    1
    87    69    72    1
    88    69    70    1
    89    70    71    2
