@<TRIPOS>MOLECULE
tmp/3cihA00.pdb
 153 152 0 0 0
SMALL
GASTEIGER

@<TRIPOS>ATOM
      1  N         44.8080   23.9240   19.1190 N.3   309  ASP309     -0.1239
      2  CA        45.2850   22.6300   19.5710 C.3   309  ASP309      0.1674
      3  C         46.6300   22.7140   20.2910 C.2   309  ASP309      0.2266
      4  O         46.7700   22.2500   21.4310 O.2   309  ASP309     -0.2867
      5  CB        45.3900   21.6650   18.3820 C.3   309  ASP309      0.1410
      6  CG        46.4680   22.0650   17.3790 C.2   309  ASP309      0.3668
      7  OD1       46.6230   23.2680   17.0870 O.co2 309  ASP309     -0.2456
      8  OD2       47.1530   21.1590   16.8640 O.co2 309  ASP309     -0.2456
      9  N         53.0230   23.0180   16.7330 N.3   313  ARG313     -0.1231
     10  CA        52.5270   22.3590   15.5440 C.3   313  ARG313      0.1694
     11  C         51.0300   22.3430   15.3690 C.2   313  ARG313      0.2592
     12  O         50.2540   22.0200   16.2850 O.2   313  ARG313     -0.2718
     13  CB        53.0650   20.9340   15.4870 C.3   313  ARG313      0.0321
     14  CG        53.0600   20.3510   14.1130 C.3   313  ARG313      0.0489
     15  CD        52.6450   18.9210   14.1930 C.3   313  ARG313      0.2205
     16  NE        51.2900   18.8260   14.7110 N.pl3 313  ARG313     -0.0865
     17  CZ        50.9840   18.3800   15.9180 C.cat 313  ARG313      0.5346
     18  NH1       51.9430   17.9830   16.7400 N.pl3 313  ARG313      0.1354
     19  NH2       49.7150   18.3170   16.2960 N.pl3 313  ARG313      0.1354
     20  N         50.6660   22.6460   14.1260 N.am  314  ASP314     -0.1974
     21  CA        49.3000   22.7620   13.6720 C.3   314  ASP314      0.1709
     22  C         48.8820   24.1650   14.0390 C.2   314  ASP314      0.2293
     23  O         48.7130   25.0090   13.1640 O.2   314  ASP314     -0.2864
     24  CB        48.3940   21.7360   14.3430 C.3   314  ASP314      0.1436
     25  CG        48.3620   20.4080   13.6000 C.2   314  ASP314      0.3671
     26  OD1       49.4440   19.8700   13.2730 O.co2 314  ASP314     -0.2456
     27  OD2       47.2470   19.8990   13.3580 O.co2 314  ASP314     -0.2456
     28  N         40.8250   22.9870   16.1360 N.3   318  TRP318     -0.1241
     29  CA        40.2800   21.6510   15.9260 C.3   318  TRP318      0.1605
     30  C         39.1220   21.4200   16.9000 C.2   318  TRP318      0.2264
     31  O         39.2110   21.7630   18.0810 O.2   318  TRP318     -0.2867
     32  CB        41.3560   20.5850   16.1570 C.3   318  TRP318      0.0550
     33  CG        42.4290   20.4250   15.0900 C.ar  318  TRP318      0.0003
     34  CD1       43.5950   21.1370   14.9760 C.ar  318  TRP318      0.0946
     35  CD2       42.5020   19.3870   14.0930 C.ar  318  TRP318      0.0152
     36  NE1       44.3930   20.5940   13.9900 N.ar  318  TRP318     -0.2442
     37  CE2       43.7480   19.5230   13.4330 C.ar  318  TRP318      0.0810
     38  CE3       41.6380   18.3500   13.7020 C.ar  318  TRP318      0.0012
     39  CZ2       44.1520   18.6570   12.4060 C.ar  318  TRP318      0.0191
     40  CZ3       42.0390   17.4890   12.6840 C.ar  318  TRP318      0.0001
     41  CH2       43.2880   17.6490   12.0470 C.ar  318  TRP318      0.0015
     42  N         39.6770   19.2210   20.2260 N.3   321  ASP321     -0.1239
     43  CA        40.4760   19.9510   21.1950 C.3   321  ASP321      0.1674
     44  C         39.6600   21.0940   21.7800 C.2   321  ASP321      0.2266
     45  O         39.6180   21.2700   22.9980 O.2   321  ASP321     -0.2867
     46  CB        41.7370   20.5000   20.5260 C.3   321  ASP321      0.1410
     47  CG        42.4910   19.4400   19.7450 C.2   321  ASP321      0.3668
     48  OD1       43.7210   19.3230   19.9370 O.co2 321  ASP321     -0.2456
     49  OD2       41.8490   18.7270   18.9330 O.co2 321  ASP321     -0.2456
     50  N         36.6510   15.1640   10.3450 N.3   358  ILE358     -0.1245
     51  CA        36.5190   14.0880   11.3300 C.3   358  ILE358      0.1561
     52  C         35.0900   13.8710   11.8140 C.2   358  ILE358      0.2260
     53  O         34.4630   14.7440   12.4050 O.2   358  ILE358     -0.2867
     54  CB        37.4450   14.3430   12.5470 C.3   358  ILE358      0.0252
     55  CG1       38.9020   14.3330   12.0850 C.3   358  ILE358      0.0019
     56  CG2       37.2140   13.2970   13.6270 C.3   358  ILE358      0.0019
     57  CD1       39.9120   14.6270   13.1950 C.3   358  ILE358      0.0001
     58  N         34.2660   14.6460   15.2940 N.3   360  TYR360     -0.1241
     59  CA        34.4550   16.0700   15.5510 C.3   360  TYR360      0.1605
     60  C         33.2190   16.8890   15.2040 C.2   360  TYR360      0.2264
     61  O         32.9910   17.9690   15.7600 O.2   360  TYR360     -0.2867
     62  CB        35.7000   16.5750   14.8070 C.3   360  TYR360      0.0534
     63  CG        36.9840   16.2860   15.5620 C.ar  360  TYR360     -0.0201
     64  CD1       37.0650   15.2070   16.4450 C.ar  360  TYR360     -0.0009
     65  CD2       38.1110   17.0950   15.4050 C.ar  360  TYR360     -0.0009
     66  CE1       38.2260   14.9460   17.1540 C.ar  360  TYR360      0.0417
     67  CE2       39.2840   16.8390   16.1140 C.ar  360  TYR360      0.0417
     68  CZ        39.3260   15.7640   16.9870 C.ar  360  TYR360      0.1957
     69  OH        40.4480   15.5080   17.7220 O.3   360  TYR360     -0.2866
     70  N         37.1040   10.8910    8.1370 N.3   406  TRP406     -0.1241
     71  CA        38.1780   10.4830    9.0210 C.3   406  TRP406      0.1605
     72  C         37.4800   10.0940   10.3360 C.2   406  TRP406      0.2264
     73  O         36.9000   10.9430   11.0050 O.2   406  TRP406     -0.2867
     74  CB        39.1670   11.6380    9.2450 C.3   406  TRP406      0.0550
     75  CG        40.2900   11.3310   10.1990 C.ar  406  TRP406      0.0003
     76  CD1       40.4720   10.1770   10.9150 C.ar  406  TRP406      0.0946
     77  CD2       41.3480   12.2160   10.5930 C.ar  406  TRP406      0.0152
     78  NE1       41.5690   10.2930   11.7310 N.ar  406  TRP406     -0.2442
     79  CE2       42.1270   11.5330   11.5570 C.ar  406  TRP406      0.0810
     80  CE3       41.7120   13.5230   10.2300 C.ar  406  TRP406      0.0012
     81  CZ2       43.2540   12.1150   12.1660 C.ar  406  TRP406      0.0191
     82  CZ3       42.8290   14.1030   10.8360 C.ar  406  TRP406      0.0001
     83  CH2       43.5870   13.3990   11.7940 C.ar  406  TRP406      0.0015
     84  N         38.2680    9.2740   13.6730 N.3   408  PHE408     -0.1241
     85  CA        39.4030    9.4180   14.5690 C.3   408  PHE408      0.1605
     86  C         39.3690    8.6730   15.8900 C.2   408  PHE408      0.2264
     87  O         40.1580    7.7570   16.1180 O.2   408  PHE408     -0.2867
     88  CB        39.6240   10.9150   14.8400 C.3   408  PHE408      0.0534
     89  CG        40.7680   11.2060   15.7740 C.ar  408  PHE408     -0.0203
     90  CD1       42.0470   10.7220   15.4930 C.ar  408  PHE408     -0.0042
     91  CD2       40.5680   11.9640   16.9290 C.ar  408  PHE408     -0.0042
     92  CE1       43.1120   10.9850   16.3400 C.ar  408  PHE408     -0.0003
     93  CE2       41.6280   12.2400   17.7940 C.ar  408  PHE408     -0.0003
     94  CZ        42.9080   11.7480   17.5000 C.ar  408  PHE408     -0.0000
     95  N         44.2370    8.6750   19.4800 N.3   411  TRP411     -0.1241
     96  CA        45.5380    8.2500   18.9710 C.3   411  TRP411      0.1605
     97  C         45.8690    7.0270   19.8200 C.2   411  TRP411      0.2264
     98  O         46.5230    7.1430   20.8580 O.2   411  TRP411     -0.2867
     99  CB        46.6200    9.3180   19.1900 C.3   411  TRP411      0.0550
    100  CG        46.4930   10.5580   18.3530 C.ar  411  TRP411      0.0003
    101  CD1       46.4190   11.8430   18.8100 C.ar  411  TRP411      0.0946
    102  CD2       46.4900   10.6440   16.9170 C.ar  411  TRP411      0.0152
    103  NE1       46.3750   12.7220   17.7530 N.ar  411  TRP411     -0.2442
    104  CE2       46.4160   12.0170   16.5800 C.ar  411  TRP411      0.0810
    105  CE3       46.5430    9.6970   15.8830 C.ar  411  TRP411      0.0012
    106  CZ2       46.3960   12.4680   15.2570 C.ar  411  TRP411      0.0191
    107  CZ3       46.5240   10.1460   14.5610 C.ar  411  TRP411      0.0001
    108  CH2       46.4520   11.5250   14.2640 C.ar  411  TRP411      0.0015
    109  N         50.7060   16.6740   23.8280 N.3   560  GLU560     -0.1245
    110  CA        49.6840   16.1810   22.9190 C.3   560  GLU560      0.1567
    111  C         49.4140   14.6940   23.1620 C.2   560  GLU560      0.2260
    112  O         48.2900   14.2190   22.9970 O.2   560  GLU560     -0.2867
    113  CB        50.1750   16.4200   21.4860 C.3   560  GLU560      0.0388
    114  CG        49.3990   15.7550   20.3780 C.3   560  GLU560      0.1160
    115  CD        49.8450   16.2620   19.0230 C.2   560  GLU560      0.3649
    116  OE1       51.0530   16.5480   18.8760 O.co2 560  GLU560     -0.2457
    117  OE2       49.0010   16.3680   18.1060 O.co2 560  GLU560     -0.2457
    118  N         53.9750   11.4220   14.4630 N.3   574  TYR574     -0.1241
    119  CA        53.7520   11.6150   13.0280 C.3   574  TYR574      0.1605
    120  C         54.9700   11.1990   12.2050 C.2   574  TYR574      0.2264
    121  O         55.2100   11.7240   11.1150 O.2   574  TYR574     -0.2867
    122  CB        53.3930   13.0740   12.7360 C.3   574  TYR574      0.0534
    123  CG        52.2080   13.5440   13.5280 C.ar  574  TYR574     -0.0201
    124  CD1       50.9240   13.0680   13.2520 C.ar  574  TYR574     -0.0009
    125  CD2       52.3740   14.4170   14.6040 C.ar  574  TYR574     -0.0009
    126  CE1       49.8350   13.4460   14.0340 C.ar  574  TYR574      0.0417
    127  CE2       51.2990   14.8030   15.3910 C.ar  574  TYR574      0.0417
    128  CZ        50.0310   14.3110   15.1020 C.ar  574  TYR574      0.1957
    129  OH        48.9650   14.6640   15.8940 O.3   574  TYR574     -0.2866
    130  N         49.9260   21.1700   24.2180 N.3   584  HIS584     -0.1241
    131  CA        48.6200   20.9500   23.6050 C.3   584  HIS584      0.1621
    132  C         47.5190   21.2760   24.5940 C.2   584  HIS584      0.2264
    133  O         47.5390   20.8220   25.7400 O.2   584  HIS584     -0.2867
    134  CB        48.4840   19.4900   23.1700 C.3   584  HIS584      0.0745
    135  CG        48.2230   19.3090   21.7060 C.ar  584  HIS584      0.0817
    136  ND1       49.0360   19.8420   20.7310 N.ar  584  HIS584     -0.2268
    137  CD2       47.2500   18.6280   21.0550 C.ar  584  HIS584      0.1154
    138  CE1       48.5750   19.4990   19.5420 C.ar  584  HIS584      0.1986
    139  NE2       47.4940   18.7620   19.7110 N.ar  584  HIS584     -0.2212
    140  N         44.6810   20.1250   24.9490 N.3   586  TRP586     -0.1241
    141  CA        44.0800   18.9520   25.5550 C.3   586  TRP586      0.1605
    142  C         44.9500   18.1970   26.5480 C.2   586  TRP586      0.2264
    143  O         44.5790   17.1320   27.0330 O.2   586  TRP586     -0.2867
    144  CB        43.4800   18.0110   24.4830 C.3   586  TRP586      0.0550
    145  CG        44.4020   17.1390   23.6570 C.ar  586  TRP586      0.0003
    146  CD1       45.6600   16.7100   23.9730 C.ar  586  TRP586      0.0946
    147  CD2       44.0540   16.4790   22.4310 C.ar  586  TRP586      0.0152
    148  NE1       46.1110   15.8180   23.0210 N.ar  586  TRP586     -0.2442
    149  CE2       45.1430   15.6600   22.0660 C.ar  586  TRP586      0.0810
    150  CE3       42.9140   16.4970   21.6080 C.ar  586  TRP586      0.0012
    151  CZ2       45.1290   14.8630   20.9110 C.ar  586  TRP586      0.0191
    152  CZ3       42.8980   15.7050   20.4630 C.ar  586  TRP586      0.0001
    153  CH2       43.9990   14.8980   20.1260 C.ar  586  TRP586      0.0015
@<TRIPOS>BOND
     1    70    71    1
     2    71    74    1
     3    71    72    1
     4    74    75    1
     5    75    77   ar
     6    75    76   ar
     7    80    77   ar
     8    80    82   ar
     9    72    73    2
    10    50    51    1
    11    77    79   ar
    12    82    83   ar
    13    76    78   ar
    14   121   120    2
    15    51    52    1
    16    51    54    1
    17    79    78   ar
    18    79    81   ar
    19    83    81   ar
    20    52    53    2
    21    41    39   ar
    22    41    40   ar
    23    55    54    1
    24    55    57    1
    25   120   119    1
    26    39    37   ar
    27    54    56    1
    28    40    38   ar
    29   122   119    1
    30   122   123    1
    31   119   118    1
    32    23    22    2
    33   124   123   ar
    34   124   126   ar
    35    26    25   ar
    36    27    25   ar
    37    37    36   ar
    38    37    35   ar
    39   123   125   ar
    40    25    24    1
    41    21    22    1
    42    21    20    1
    43    21    24    1
    44    84    85    1
    45    38    35   ar
    46    36    34   ar
    47   126   128   ar
    48    35    33   ar
    49    14    15    1
    50    14    13    1
    51    20    11   am
    52    15    16    1
    53   108   107   ar
    54   108   106   ar
    55   107   105   ar
    56    85    88    1
    57    85    86    1
    58   125   127   ar
    59    16    17    2
    60    62    59    1
    61    62    63    1
    62    88    89    1
    63    34    33   ar
    64    33    32    1
    65   128   127   ar
    66   128   129    1
    67    60    59    1
    68    60    61    2
    69   106   104   ar
    70    58    59    1
    71    11    10    1
    72    11    12    2
    73    65    63   ar
    74    65    67   ar
    75    13    10    1
    76    90    89   ar
    77    90    92   ar
    78    10     9    1
    79    63    64   ar
    80    89    91   ar
    81   105   102   ar
    82    86    87    2
    83    17    19    1
    84    17    18    1
    85    29    28    1
    86    29    32    1
    87    29    30    1
    88    67    68   ar
    89    92    94   ar
    90    64    66   ar
    91   104   102   ar
    92   104   103   ar
    93     8     6   ar
    94    30    31    2
    95   102   100   ar
    96    91    93   ar
    97    68    66   ar
    98    68    69    1
    99     7     6   ar
   100     6     5    1
   101    94    93   ar
   102   103   101   ar
   103   117   115   ar
   104   100   101   ar
   105   100    99    1
   106     5     2    1
   107   116   115   ar
   108    49    47   ar
   109    96    99    1
   110    96    95    1
   111    96    97    1
   112   115   114    1
   113     1     2    1
   114   138   139   ar
   115   138   136   ar
   116     2     3    1
   117   139   137   ar
   118    47    48   ar
   119    47    46    1
   120    97    98    2
   121   153   152   ar
   122   153   151   ar
   123    42    43    1
   124     3     4    2
   125   114   113    1
   126   152   150   ar
   127    46    43    1
   128   136   135   ar
   129   151   149   ar
   130   137   135   ar
   131    43    44    1
   132   113   110    1
   133   150   147   ar
   134   135   134    1
   135    44    45    2
   136   149   147   ar
   137   149   148   ar
   138   147   145   ar
   139   110   111    1
   140   110   109    1
   141   112   111    2
   142   148   146   ar
   143   134   131    1
   144   131   130    1
   145   131   132    1
   146   145   146   ar
   147   145   144    1
   148   144   141    1
   149   132   133    2
   150   140   141    1
   151   141   142    1
   152   142   143    2
