@<TRIPOS>MOLECULE
tmp/3cisG00.pdb
 150 142 0 0 0
SMALL
GASTEIGER

@<TRIPOS>ATOM
      1  N         13.3240   85.3860  168.1920 N.3    10  GLY10      -0.1210
      2  CA        12.9070   85.1790  166.8190 C.3    10  GLY10       0.1956
      3  C         13.4260   83.8570  166.2940 C.2    10  GLY10       0.2612
      4  O         14.6140   83.5590  166.4110 O.2    10  GLY10      -0.2717
      5  N         12.5250   83.0730  165.7070 N.am   11  ILE11      -0.1965
      6  CA        12.8290   81.7280  165.2340 C.3    11  ILE11       0.1727
      7  C         12.8610   81.6700  163.7110 C.2    11  ILE11       0.2616
      8  O         11.9910   82.2190  163.0410 O.2    11  ILE11      -0.2715
      9  CB        11.7630   80.7150  165.7320 C.3    11  ILE11       0.0290
     10  CG1       11.6470   80.7600  167.2500 C.3    11  ILE11       0.0022
     11  CG2       12.1000   79.3020  165.3020 C.3    11  ILE11       0.0023
     12  CD1       12.9610   80.5170  167.9450 C.3    11  ILE11       0.0001
     13  N         13.8780   81.0110  163.1710 N.am   12  ASP12      -0.1971
     14  CA        13.8860   80.6230  161.7660 C.3    12  ASP12       0.1709
     15  C         14.6880   79.3360  161.6410 C.2    12  ASP12       0.2293
     16  O         15.1880   78.8240  162.6370 O.2    12  ASP12      -0.2864
     17  CB        14.4130   81.7440  160.8530 C.3    12  ASP12       0.1436
     18  CG        15.9330   81.8490  160.8420 C.2    12  ASP12       0.3671
     19  OD1       16.4720   82.4230  159.8710 O.co2  12  ASP12      -0.2456
     20  OD2       16.5910   81.3690  161.7870 O.co2  12  ASP12      -0.2456
     21  N         17.7050   77.7630  161.1890 N.3    14  SER14      -0.1217
     22  CA        19.1400   78.0440  161.1570 C.3    14  SER14       0.1889
     23  C         19.8120   77.6770  162.4690 C.2    14  SER14       0.2288
     24  O         19.1950   77.7730  163.5300 O.2    14  SER14      -0.2866
     25  CB        19.3810   79.5260  160.8690 C.3    14  SER14       0.2089
     26  OG        18.8730   80.3390  161.9150 O.3    14  SER14      -0.2183
     27  N         19.6830   80.4230  165.2310 N.3    17  ALA17      -0.1245
     28  CA        18.3580   80.5870  165.8320 C.3    17  ALA17       0.1562
     29  C         18.0970   79.5210  166.8850 C.2    17  ALA17       0.2260
     30  O         17.4080   79.7720  167.8690 O.2    17  ALA17      -0.2867
     31  CB        17.2760   80.5590  164.7710 C.3    17  ALA17       0.0290
     32  N          8.7430   83.5830  168.4660 N.3    38  VAL38      -0.1231
     33  CA         8.0700   84.2470  167.3590 C.3    38  VAL38       0.1692
     34  C          8.6880   83.8640  166.0280 C.2    38  VAL38       0.2592
     35  O          9.8930   83.9790  165.8390 O.2    38  VAL38      -0.2718
     36  CB         8.1230   85.7780  167.5020 C.3    38  VAL38       0.0266
     37  CG1        7.4590   86.4490  166.3080 C.3    38  VAL38       0.0020
     38  CG2        7.4640   86.2090  168.8000 C.3    38  VAL38       0.0020
     39  N          7.8520   83.3960  165.1120 N.am   39  HIS39      -0.1962
     40  CA         8.2710   83.1840  163.7360 C.3    39  HIS39       0.1787
     41  C          7.3860   84.0210  162.8330 C.2    39  HIS39       0.2620
     42  O          6.1610   83.9550  162.9200 O.2    39  HIS39      -0.2715
     43  CB         8.1620   81.7120  163.3570 C.3    39  HIS39       0.0785
     44  CG         8.4810   81.4360  161.9220 C.ar   39  HIS39       0.0821
     45  ND1        9.7550   81.5430  161.4100 N.ar   39  HIS39      -0.2267
     46  CD2        7.6920   81.0470  160.8930 C.ar   39  HIS39       0.1154
     47  CE1        9.7390   81.2370  160.1250 C.ar   39  HIS39       0.1986
     48  NE2        8.4990   80.9310  159.7860 N.ar   39  HIS39      -0.2212
     49  N          8.0100   84.8100  161.9640 N.am   40  ALA40      -0.1977
     50  CA         7.2760   85.7120  161.0850 C.3    40  ALA40       0.1597
     51  C          7.3440   85.2450  159.6350 C.2    40  ALA40       0.2287
     52  O          8.4240   85.1520  159.0520 O.2    40  ALA40      -0.2864
     53  CB         7.8120   87.1300  161.2130 C.3    40  ALA40       0.0319
     54  N          9.5020   90.0050  159.3860 N.3    97  ALA97      -0.1245
     55  CA        10.1720   89.7960  160.6700 C.3    97  ALA97       0.1562
     56  C         10.5340   91.0860  161.4030 C.2    97  ALA97       0.2260
     57  O         10.1150   91.2850  162.5450 O.2    97  ALA97      -0.2867
     58  CB        11.4010   88.9140  160.4970 C.3    97  ALA97       0.0290
     59  N          8.9450   92.1050  164.8880 N.3   101  LEU101     -0.1245
     60  CA         9.7600   92.0350  166.0940 C.3   101  LEU101      0.1561
     61  C         10.0160   93.4120  166.7040 C.2   101  LEU101      0.2260
     62  O          9.9830   93.5670  167.9260 O.2   101  LEU101     -0.2867
     63  CB        11.0740   91.2990  165.8220 C.3   101  LEU101      0.0270
     64  CG        10.9220   89.8160  165.4640 C.3   101  LEU101      0.0019
     65  CD1       12.2330   89.2190  164.9840 C.3   101  LEU101      0.0001
     66  CD2       10.3660   89.0220  166.6370 C.3   101  LEU101      0.0001
     67  N         17.9950   87.1420  168.9870 N.3   113  VAL113     -0.1231
     68  CA        18.0200   86.5730  167.6420 C.3   113  VAL113      0.1692
     69  C         19.4160   86.0810  167.3060 C.2   113  VAL113      0.2593
     70  O         20.3950   86.5100  167.9130 O.2   113  VAL113     -0.2718
     71  CB        17.5820   87.5810  166.5430 C.3   113  VAL113      0.0266
     72  CG1       16.0930   87.9120  166.6570 C.3   113  VAL113      0.0020
     73  CG2       18.4460   88.8350  166.5810 C.3   113  VAL113      0.0020
     74  N         19.5020   85.1770  166.3360 N.am  114  GLY114     -0.1942
     75  CA        20.7910   84.7080  165.8570 C.3   114  GLY114      0.2014
     76  C         21.4780   85.7770  165.0300 C.2   114  GLY114      0.2639
     77  O         20.8550   86.7550  164.6090 O.2   114  GLY114     -0.2714
     78  N         22.7700   85.5950  164.7960 N.am  115  CYS115     -0.1953
     79  CA        23.5370   86.5490  164.0140 C.3   115  CYS115      0.1843
     80  C         23.2220   86.3880  162.5340 C.2   115  CYS115      0.2625
     81  O         22.9630   87.3630  161.8270 O.2   115  CYS115     -0.2714
     82  CB        25.0280   86.3420  164.2540 C.3   115  CYS115      0.0997
     83  SG        26.0000   87.8380  163.9730 S.3   115  CYS115     -0.0797
     84  N         23.2480   85.1410  162.0780 N.am  116  LEU116     -0.1963
     85  CA        22.9240   84.8060  160.7010 C.3   116  LEU116      0.1728
     86  C         21.7570   83.8250  160.6590 C.2   116  LEU116      0.2617
     87  O         21.5670   83.0330  161.5830 O.2   116  LEU116     -0.2715
     88  CB        24.1470   84.2130  160.0030 C.3   116  LEU116      0.0311
     89  CG        25.3010   85.1990  159.7900 C.3   116  LEU116      0.0022
     90  CD1       26.5680   84.4800  159.3320 C.3   116  LEU116      0.0001
     91  CD2       24.8960   86.2890  158.7990 C.3   116  LEU116      0.0001
     92  N         20.9760   83.8850  159.5860 N.am  117  GLY117     -0.1940
     93  CA        19.7920   83.0490  159.4660 C.3   117  GLY117      0.2014
     94  C         19.8580   82.0250  158.3520 C.2   117  GLY117      0.2640
     95  O         20.9390   81.6170  157.9240 O.2   117  GLY117     -0.2714
     96  N         18.6870   81.6100  157.8810 N.am  118  SER118     -0.1935
     97  CA        18.5950   80.5740  156.8640 C.3   118  SER118      0.2055
     98  C         19.0700   81.0650  155.5000 C.2   118  SER118      0.2644
     99  O         19.3780   80.2640  154.6190 O.2   118  SER118     -0.2714
    100  CB        17.1630   80.0500  156.7690 C.3   118  SER118      0.2130
    101  OG        16.2680   81.0990  156.4560 O.3   118  SER118     -0.2179
    102  N         19.1360   82.3810  155.3310 N.am  119  GLY119     -0.1939
    103  CA        19.5500   82.9600  154.0600 C.3   119  GLY119      0.2014
    104  C         21.0420   83.2250  153.9670 C.2   119  GLY119      0.2638
    105  O         21.5220   83.7990  152.9870 O.2   119  GLY119     -0.2714
    106  N         21.7790   82.7940  154.9840 N.am  120  ARG120     -0.1977
    107  CA        23.1960   83.1040  155.0890 C.3   120  ARG120      0.1597
    108  C         24.0080   82.5310  153.9290 C.2   120  ARG120      0.2287
    109  O         23.6490   81.5100  153.3510 O.2   120  ARG120     -0.2864
    110  CB        23.7440   82.6060  156.4310 C.3   120  ARG120      0.0334
    111  CG        24.4020   81.2320  156.3950 C.3   120  ARG120      0.0492
    112  CD        24.3410   80.5540  157.7610 C.3   120  ARG120      0.2205
    113  NE        23.0920   79.8190  157.9180 N.pl3 120  ARG120     -0.0865
    114  CZ        23.0060   78.4950  157.9730 C.cat 120  ARG120      0.5346
    115  NH1       24.1020   77.7530  157.9140 N.pl3 120  ARG120      0.1354
    116  NH2       21.8230   77.9100  158.1010 N.pl3 120  ARG120      0.1354
    117  N         28.8940   87.1650  154.5710 N.3   124  ARG124     -0.1245
    118  CA        27.9810   87.9720  155.3770 C.3   124  ARG124      0.1563
    119  C         28.1640   87.7190  156.8650 C.2   124  ARG124      0.2260
    120  O         28.3180   86.5770  157.2950 O.2   124  ARG124     -0.2867
    121  CB        26.5340   87.7110  154.9650 C.3   124  ARG124      0.0307
    122  CG        26.2780   87.9790  153.4970 C.3   124  ARG124      0.0489
    123  CD        24.8370   87.7290  153.1220 C.3   124  ARG124      0.2205
    124  NE        23.9370   88.7500  153.6490 N.pl3 124  ARG124     -0.0865
    125  CZ        22.9910   88.5190  154.5540 C.cat 124  ARG124      0.5346
    126  NH1       22.8160   87.2950  155.0380 N.pl3 124  ARG124      0.1354
    127  NH2       22.2140   89.5100  154.9700 N.pl3 124  ARG124      0.1354
    128  N         22.6090   89.2440  159.4000 N.3   127  GLY127     -0.1210
    129  CA        21.4150   89.1020  158.5690 C.3   127  GLY127      0.1956
    130  C         20.5690   90.3560  158.6390 C.2   127  GLY127      0.2613
    131  O         20.8140   91.2250  159.4700 O.2   127  GLY127     -0.2717
    132  N         19.5660   90.4560  157.7770 N.am  128  SER128     -0.1938
    133  CA        18.7370   91.6530  157.7340 C.3   128  SER128      0.2055
    134  C         17.8930   91.8260  158.9900 C.2   128  SER128      0.2643
    135  O         17.5390   92.9420  159.3470 O.2   128  SER128     -0.2714
    136  CB        17.8300   91.6430  156.5070 C.3   128  SER128      0.2130
    137  OG        16.7580   90.7380  156.6890 O.3   128  SER128     -0.2179
    138  N         17.5670   90.7230  159.6540 N.am  129  VAL129     -0.1963
    139  CA        16.7310   90.7730  160.8480 C.3   129  VAL129      0.1727
    140  C         17.5450   91.2040  162.0630 C.2   129  VAL129      0.2616
    141  O         17.1510   92.1160  162.7860 O.2   129  VAL129     -0.2715
    142  CB        16.0390   89.4160  161.1230 C.3   129  VAL129      0.0290
    143  CG1       15.2720   89.4530  162.4460 C.3   129  VAL129      0.0023
    144  CG2       15.1150   89.0600  159.9760 C.3   129  VAL129      0.0023
    145  N         18.6800   90.5510  162.2820 N.am  130  SER130     -0.1950
    146  CA        19.5630   90.9230  163.3760 C.3   130  SER130      0.1924
    147  C         20.0270   92.3720  163.2140 C.2   130  SER130      0.2314
    148  O         20.0280   93.1520  164.1700 O.2   130  SER130     -0.2863
    149  CB        20.7580   89.9730  163.4440 C.3   130  SER130      0.2116
    150  OG        21.3970   89.8740  162.1840 O.3   130  SER130     -0.2180
@<TRIPOS>BOND
     1   105   104    2
     2   123   122    1
     3   123   124    1
     4   109   108    2
     5   122   121    1
     6   124   125    2
     7   108   107    1
     8   104   103    1
     9   104   106   am
    10   103   102    1
    11   125   127    1
    12   125   126    1
    13   117   118    1
    14    99    98    2
    15   121   118    1
    16   106   107    1
    17   107   110    1
    18   102    98   am
    19   118   119    1
    20    98    97    1
    21   111   110    1
    22   111   112    1
    23   101   100    1
    24   136   137    1
    25   136   133    1
    26   100    97    1
    27    97    96    1
    28   119   120    2
    29   133   132    1
    30   133   134    1
    31   112   113    1
    32   132   130   am
    33    96    94   am
    34   115   114    1
    35   113   114    2
    36    95    94    2
    37   114   116    1
    38    94    93    1
    39   129   130    1
    40   129   128    1
    41   130   131    2
    42    91    89    1
    43   134   135    2
    44   134   138   am
    45    52    51    2
    46    90    89    1
    47    54    55    1
    48    93    92    1
    49    92    86   am
    50    51    50    1
    51   138   139    1
    52    48    47   ar
    53    48    46   ar
    54    89    88    1
    55    19    18   ar
    56   144   142    1
    57    88    85    1
    58    47    45   ar
    59    58    55    1
    60    86    85    1
    61    86    87    2
    62    55    56    1
    63    85    84    1
    64    18    17    1
    65    18    20   ar
    66   139   142    1
    67   139   140    1
    68    17    14    1
    69    25    22    1
    70    25    26    1
    71    46    44   ar
    72    50    53    1
    73    50    49    1
    74   142   143    1
    75    22    21    1
    76    22    23    1
    77    56    57    2
    78    45    44   ar
    79    15    14    1
    80    15    16    2
    81    14    13    1
    82    81    80    2
    83    44    43    1
    84    49    41   am
    85   140   145   am
    86   140   141    2
    87    84    80   am
    88   150   149    1
    89   145   146    1
    90    23    24    2
    91    80    79    1
    92    41    42    2
    93    41    40    1
    94     8     7    2
    95    13     7   am
    96   147   146    1
    97   147   148    2
    98    43    40    1
    99   146   149    1
   100     7     6    1
   101    40    39    1
   102    83    82    1
   103    79    82    1
   104    79    78    1
   105    77    76    2
   106    31    28    1
   107    78    76   am
   108    59    60    1
   109    65    64    1
   110    76    75    1
   111    39    34   am
   112    27    28    1
   113     6     5    1
   114     6     9    1
   115    11     9    1
   116    64    63    1
   117    64    66    1
   118     5     3   am
   119     9    10    1
   120    63    60    1
   121    28    29    1
   122    35    34    2
   123    75    74    1
   124    34    33    1
   125    60    61    1
   126     3     4    2
   127     3     2    1
   128    37    36    1
   129    74    69   am
   130    71    73    1
   131    71    72    1
   132    71    68    1
   133    61    62    2
   134     2     1    1
   135    29    30    2
   136    10    12    1
   137    69    68    1
   138    69    70    2
   139    33    36    1
   140    33    32    1
   141    36    38    1
   142    68    67    1
