@<TRIPOS>MOLECULE
tmp/3cisG01.pdb
 168 161 0 0 0
SMALL
GASTEIGER

@<TRIPOS>ATOM
      1  N         31.7910   96.8230  177.9570 N.3   162  GLY162     -0.1210
      2  CA        32.5450   97.9780  177.4980 C.3   162  GLY162      0.1956
      3  C         31.9090   99.2590  177.9980 C.2   162  GLY162      0.2612
      4  O         30.7310   99.5150  177.7460 O.2   162  GLY162     -0.2717
      5  N         32.6890  100.0610  178.7180 N.am  163  VAL163     -0.1965
      6  CA        32.2020  101.3220  179.2610 C.3   163  VAL163      0.1727
      7  C         32.9250  102.4850  178.5990 C.2   163  VAL163      0.2616
      8  O         34.1420  102.4400  178.4310 O.2   163  VAL163     -0.2715
      9  CB        32.4200  101.4010  180.7820 C.3   163  VAL163      0.0290
     10  CG1       31.6080  102.5460  181.3730 C.3   163  VAL163      0.0023
     11  CG2       32.0370  100.0880  181.4430 C.3   163  VAL163      0.0023
     12  N         32.1800  103.5210  178.2160 N.am  164  ASP164     -0.1971
     13  CA        32.7950  104.7070  177.6150 C.3   164  ASP164      0.1709
     14  C         32.2710  106.0120  178.2120 C.2   164  ASP164      0.2293
     15  O         32.6580  107.0990  177.7820 O.2   164  ASP164     -0.2864
     16  CB        32.6630  104.6970  176.0810 C.3   164  ASP164      0.1436
     17  CG        31.3100  105.2050  175.5900 C.2   164  ASP164      0.3671
     18  OD1       30.3660  105.3320  176.4000 O.co2 164  ASP164     -0.2456
     19  OD2       31.1950  105.4760  174.3750 O.co2 164  ASP164     -0.2456
     20  N         25.9880  103.7090  177.4100 N.3   169  SER169     -0.1217
     21  CA        26.9540  102.8340  178.0620 C.3   169  SER169      0.1889
     22  C         26.5430  102.5750  179.5080 C.2   169  SER169      0.2288
     23  O         26.8010  101.5060  180.0570 O.2   169  SER169     -0.2866
     24  CB        28.3430  103.4650  178.0140 C.3   169  SER169      0.2089
     25  OG        29.3350  102.5600  178.4560 O.3   169  SER169     -0.2183
     26  N         24.1800   99.7850  179.3990 N.3   172  ALA172     -0.1245
     27  CA        24.9490   98.5590  179.2260 C.3   172  ALA172      0.1562
     28  C         25.4860   98.0610  180.5720 C.2   172  ALA172      0.2260
     29  O         25.3650   96.8800  180.9000 O.2   172  ALA172     -0.2867
     30  CB        26.0810   98.7720  178.2360 C.3   172  ALA172      0.0290
     31  N         35.7000   96.9890  180.7780 N.3   190  LEU190     -0.1231
     32  CA        36.7940   97.4700  179.9410 C.3   190  LEU190      0.1693
     33  C         36.5130   98.8580  179.3880 C.2   190  LEU190      0.2592
     34  O         35.4170   99.1310  178.9030 O.2   190  LEU190     -0.2718
     35  CB        37.0700   96.4920  178.7980 C.3   190  LEU190      0.0284
     36  CG        38.0640   96.9720  177.7430 C.3   190  LEU190      0.0019
     37  CD1       38.8330   95.8070  177.1570 C.3   190  LEU190      0.0001
     38  CD2       37.3620   97.7670  176.6470 C.3   190  LEU190      0.0001
     39  N         37.5090   99.7350  179.4740 N.am  191  HIS191     -0.1962
     40  CA        37.4200  101.0570  178.8700 C.3   191  HIS191      0.1787
     41  C         38.6360  101.3180  177.9990 C.2   191  HIS191      0.2620
     42  O         39.7690  101.0750  178.4100 O.2   191  HIS191     -0.2715
     43  CB        37.3020  102.1430  179.9380 C.3   191  HIS191      0.0785
     44  CG        37.3470  103.5360  179.3880 C.ar  191  HIS191      0.0821
     45  ND1       38.4970  104.2980  179.3810 N.ar  191  HIS191     -0.2267
     46  CD2       36.3870  104.3040  178.8220 C.ar  191  HIS191      0.1154
     47  CE1       38.2410  105.4760  178.8400 C.ar  191  HIS191      0.1986
     48  NE2       36.9670  105.5060  178.4920 N.ar  191  HIS191     -0.2212
     49  N         38.3940  101.7960  176.7860 N.am  192  ALA192     -0.1977
     50  CA        39.4720  102.2630  175.9350 C.3   192  ALA192      0.1597
     51  C         39.5680  103.7700  176.1000 C.2   192  ALA192      0.2287
     52  O         38.5710  104.4810  175.9510 O.2   192  ALA192     -0.2864
     53  CB        39.2170  101.8940  174.4900 C.3   192  ALA192      0.0319
     54  N         38.8050  106.5440  171.5310 N.3   195  ASP195     -0.1239
     55  CA        37.9390  105.8770  170.5610 C.3   195  ASP195      0.1674
     56  C         38.6400  105.6910  169.2170 C.2   195  ASP195      0.2266
     57  O         38.3630  104.7360  168.4970 O.2   195  ASP195     -0.2867
     58  CB        36.6310  106.6560  170.3720 C.3   195  ASP195      0.1410
     59  CG        35.7990  106.7260  171.6440 C.2   195  ASP195      0.3668
     60  OD1       36.1280  106.0160  172.6150 O.co2 195  ASP195     -0.2456
     61  OD2       34.8160  107.4960  171.6760 O.co2 195  ASP195     -0.2456
     62  N         38.5900   99.9950  171.0720 N.3   242  PRO242     -0.2116
     63  CA        37.6940   99.3010  171.9980 C.3   242  PRO242      0.1372
     64  C         36.9680   98.1130  171.3650 C.2   242  PRO242      0.2244
     65  O         36.7600   97.0970  172.0270 O.2   242  PRO242     -0.2868
     66  CB        36.6950  100.3890  172.4120 C.3   242  PRO242      0.0268
     67  CG        36.7490  101.3990  171.3310 C.3   242  PRO242      0.0207
     68  CD        38.1400  101.3670  170.7790 C.3   242  PRO242      0.0892
     69  N         37.3460   94.3490  172.8050 N.3   246  LEU246     -0.1245
     70  CA        36.1820   93.6290  173.3190 C.3   246  LEU246      0.1561
     71  C         36.0350   92.2710  172.6400 C.2   246  LEU246      0.2260
     72  O         35.8360   91.2550  173.3040 O.2   246  LEU246     -0.2867
     73  CB        34.9080   94.4620  173.1510 C.3   246  LEU246      0.0270
     74  CG        34.7980   95.6880  174.0610 C.3   246  LEU246      0.0019
     75  CD1       33.7400   96.6590  173.5660 C.3   246  LEU246      0.0001
     76  CD2       34.5180   95.2770  175.4960 C.3   246  LEU246      0.0001
     77  N         27.3580   95.7530  175.4620 N.3   258  VAL258     -0.1231
     78  CA        27.7190   97.0930  175.0130 C.3   258  VAL258      0.1692
     79  C         26.4410   97.8760  174.7560 C.2   258  VAL258      0.2593
     80  O         25.3590   97.2940  174.6620 O.2   258  VAL258     -0.2718
     81  CB        28.5580   97.0720  173.7170 C.3   258  VAL258      0.0266
     82  CG1       29.8620   96.3190  173.9240 C.3   258  VAL258      0.0020
     83  CG2       27.7620   96.4690  172.5730 C.3   258  VAL258      0.0020
     84  N         26.5630   99.1950  174.6500 N.am  259  GLY259     -0.1942
     85  CA        25.4210  100.0340  174.3080 C.3   259  GLY259      0.2014
     86  C         25.2380  100.0780  172.8040 C.2   259  GLY259      0.2640
     87  O         26.1140   99.6480  172.0570 O.2   259  GLY259     -0.2714
     88  N         24.0980  100.5850  172.3520 N.am  260  SER260     -0.1935
     89  CA        23.8650  100.7400  170.9250 C.3   260  SER260      0.2055
     90  C         24.5530  102.0040  170.4430 C.2   260  SER260      0.2643
     91  O         24.9720  102.0940  169.2950 O.2   260  SER260     -0.2714
     92  CB        22.3650  100.8030  170.6180 C.3   260  SER260      0.2130
     93  OG        21.7350  101.8710  171.3100 O.3   260  SER260     -0.2179
     94  N         24.6670  102.9760  171.3410 N.am  261  ARG261     -0.1963
     95  CA        25.3070  104.2490  171.0380 C.3   261  ARG261      0.1729
     96  C         26.4250  104.5350  172.0340 C.2   261  ARG261      0.2617
     97  O         26.4520  103.9700  173.1290 O.2   261  ARG261     -0.2715
     98  CB        24.2830  105.3850  171.0770 C.3   261  ARG261      0.0348
     99  CG        23.3690  105.4510  169.8720 C.3   261  ARG261      0.0492
    100  CD        24.1580  105.6930  168.6000 C.3   261  ARG261      0.2205
    101  NE        25.1180  106.7890  168.7440 N.pl3 261  ARG261     -0.0865
    102  CZ        24.8510  108.0670  168.4850 C.cat 261  ARG261      0.5346
    103  NH1       23.6480  108.4260  168.0640 N.pl3 261  ARG261      0.1354
    104  NH2       25.7910  108.9850  168.6450 N.pl3 261  ARG261      0.1354
    105  N         27.3460  105.4140  171.6520 N.am  262  GLY262     -0.1940
    106  CA        28.4500  105.7830  172.5280 C.3   262  GLY262      0.2014
    107  C         28.5870  107.2820  172.6930 C.2   262  GLY262      0.2639
    108  O         27.6270  108.0250  172.5050 O.2   262  GLY262     -0.2714
    109  N         29.7890  107.7260  173.0470 N.am  263  ARG263     -0.1963
    110  CA        30.0670  109.1460  173.2400 C.3   263  ARG263      0.1729
    111  C         30.4290  109.8170  171.9180 C.2   263  ARG263      0.2617
    112  O         30.4780  111.0410  171.8320 O.2   263  ARG263     -0.2715
    113  CB        31.2030  109.3330  174.2450 C.3   263  ARG263      0.0348
    114  CG        32.4980  108.6780  173.8120 C.3   263  ARG263      0.0492
    115  CD        33.5720  108.7850  174.8720 C.3   263  ARG263      0.2205
    116  NE        34.7660  108.0400  174.4870 N.pl3 263  ARG263     -0.0865
    117  CZ        35.8500  107.9210  175.2460 C.cat 263  ARG263      0.5346
    118  NH1       35.8950  108.5030  176.4380 N.pl3 263  ARG263      0.1354
    119  NH2       36.8910  107.2210  174.8150 N.pl3 263  ARG263      0.1354
    120  N         30.6950  109.0130  170.8940 N.am  264  GLY264     -0.1940
    121  CA        30.9880  109.5370  169.5680 C.3   264  GLY264      0.2014
    122  C         29.7530  109.5920  168.6870 C.2   264  GLY264      0.2639
    123  O         28.6930  110.0520  169.1150 O.2   264  GLY264     -0.2714
    124  N         29.8950  109.1240  167.4500 N.am  265  GLY265     -0.1939
    125  CA        28.7870  109.0770  166.5050 C.3   265  GLY265      0.2014
    126  C         28.2850  110.4310  166.0420 C.2   265  GLY265      0.2638
    127  O         28.9540  111.4480  166.2200 O.2   265  GLY265     -0.2714
    128  N         27.0980  110.4340  165.4420 N.am  266  TYR266     -0.1973
    129  CA        26.4860  111.6480  164.9120 C.3   266  TYR266      0.1639
    130  C         24.9720  111.5550  165.0130 C.2   266  TYR266      0.2290
    131  O         24.4340  110.5200  165.4010 O.2   266  TYR266     -0.2864
    132  CB        26.8940  111.8520  163.4540 C.3   266  TYR266      0.0560
    133  CG        26.9690  110.5670  162.6660 C.ar  266  TYR266     -0.0198
    134  CD1       28.1710  109.8800  162.5360 C.ar  266  TYR266     -0.0009
    135  CD2       25.8380  110.0320  162.0570 C.ar  266  TYR266     -0.0009
    136  CE1       28.2470  108.6990  161.8200 C.ar  266  TYR266      0.0417
    137  CE2       25.9040  108.8480  161.3360 C.ar  266  TYR266      0.0417
    138  CZ        27.1100  108.1880  161.2230 C.ar  266  TYR266      0.1957
    139  OH        27.1810  107.0130  160.5100 O.3   266  TYR266     -0.2866
    140  N         22.4260  108.4610  163.5770 N.3   269  MET269     -0.1245
    141  CA        23.0550  107.1510  163.6730 C.3   269  MET269      0.1570
    142  C         22.2160  106.2420  164.5550 C.2   269  MET269      0.2261
    143  O         21.8360  106.6190  165.6660 O.2   269  MET269     -0.2867
    144  CB        24.4720  107.2590  164.2310 C.3   269  MET269      0.0387
    145  CG        25.2920  105.9970  164.0270 C.3   269  MET269      0.0595
    146  SD        26.9690  106.1140  164.6680 S.3   269  MET269     -0.1393
    147  CE        26.6080  106.3590  166.3990 C.3   269  MET269      0.0692
    148  N         26.1660  102.4320  166.8080 N.3   272  GLY272     -0.1210
    149  CA        27.5790  102.7860  166.7300 C.3   272  GLY272      0.1956
    150  C         28.4110  101.6870  166.0990 C.2   272  GLY272      0.2613
    151  O         27.9870  100.5340  166.0430 O.2   272  GLY272     -0.2717
    152  N         29.6010  102.0420  165.6300 N.am  273  SER273     -0.1938
    153  CA        30.4480  101.0920  164.9210 C.3   273  SER273      0.2055
    154  C         31.0670  100.0630  165.8600 C.2   273  SER273      0.2643
    155  O         31.3600   98.9390  165.4530 O.2   273  SER273     -0.2714
    156  CB        31.5410  101.8220  164.1410 C.3   273  SER273      0.2130
    157  OG        32.4160  102.5030  165.0220 O.3   273  SER273     -0.2179
    158  N         31.2720  100.4470  167.1150 N.am  274  VAL274     -0.1963
    159  CA        31.7900   99.5160  168.1090 C.3   274  VAL274      0.1727
    160  C         30.6920   98.5420  168.5040 C.2   274  VAL274      0.2616
    161  O         30.9150   97.3330  168.5610 O.2   274  VAL274     -0.2715
    162  CB        32.3310  100.2420  169.3620 C.3   274  VAL274      0.0290
    163  CG1       32.5700   99.2570  170.4930 C.3   274  VAL274      0.0023
    164  CG2       33.6140  100.9760  169.0270 C.3   274  VAL274      0.0023
    165  N         29.5020   99.0780  168.7610 N.am  275  GLY275     -0.1955
    166  CA        28.3480   98.2600  169.1000 C.3   275  GLY275      0.1869
    167  C         28.0790   97.1940  168.0560 C.2   275  GLY275      0.2309
    168  O         27.8450   96.0360  168.3910 O.2   275  GLY275     -0.2863
@<TRIPOS>BOND
     1   139   138    1
     2   138   137   ar
     3   138   136   ar
     4   137   135   ar
     5   136   134   ar
     6   135   133   ar
     7   134   133   ar
     8   133   132    1
     9   132   129    1
    10   140   141    1
    11   141   144    1
    12   141   142    1
    13   145   144    1
    14   145   146    1
    15   156   153    1
    16   156   157    1
    17   142   143    2
    18   146   147    1
    19   129   130    1
    20   129   128    1
    21   153   152    1
    22   153   154    1
    23   130   131    2
    24   128   126   am
    25   155   154    2
    26   152   150   am
    27   154   158   am
    28   126   127    2
    29   126   125    1
    30   151   150    2
    31   150   149    1
    32   125   124    1
    33   149   148    1
    34   158   159    1
    35   124   122   am
    36   167   168    2
    37   167   166    1
    38   103   102    1
    39   159   160    1
    40   159   162    1
    41   102   104    1
    42   102   101    2
    43    57    56    2
    44   160   161    2
    45   160   165   am
    46   100   101    1
    47   100    99    1
    48   122   123    2
    49   122   121    1
    50   165   166    1
    51   164   162    1
    52    56    55    1
    53    91    90    2
    54   162   163    1
    55   121   120    1
    56    99    98    1
    57    58    55    1
    58    58    59    1
    59    90    89    1
    60    90    94   am
    61    55    54    1
    62    92    89    1
    63    92    93    1
    64    68    62    1
    65    68    67    1
    66   120   111   am
    67    89    88    1
    68    95    98    1
    69    95    94    1
    70    95    96    1
    71    62    63    1
    72    67    66    1
    73    64    63    1
    74    64    65    2
    75    59    61   ar
    76    59    60   ar
    77   105    96   am
    78   105   106    1
    79   112   111    2
    80   111   110    1
    81    63    66    1
    82    96    97    2
    83    87    86    2
    84    88    86   am
    85   108   107    2
    86   106   107    1
    87    83    81    1
    88    71    72    2
    89    71    70    1
    90   107   109   am
    91    86    85    1
    92    69    70    1
    93   109   110    1
    94    73    70    1
    95    73    74    1
    96   110   113    1
    97    75    74    1
    98    81    82    1
    99    81    78    1
   100   114   113    1
   101   114   115    1
   102    74    76    1
   103    85    84    1
   104    19    17   ar
   105   116   115    1
   106   116   117    2
   107    53    50    1
   108    84    79   am
   109    80    79    2
   110    79    78    1
   111   119   117    1
   112    78    77    1
   113   117   118    1
   114    17    16    1
   115    17    18   ar
   116    50    51    1
   117    50    49    1
   118    52    51    2
   119    16    13    1
   120    38    36    1
   121    49    41   am
   122    37    36    1
   123    20    21    1
   124     2     1    1
   125     2     3    1
   126    13    14    1
   127    13    12    1
   128    36    35    1
   129     4     3    2
   130    15    14    2
   131     3     5   am
   132    41    42    2
   133    41    40    1
   134    24    21    1
   135    24    25    1
   136    21    22    1
   137    12     7   am
   138    30    27    1
   139     8     7    2
   140    48    46   ar
   141    48    47   ar
   142     7     6    1
   143     5     6    1
   144    35    32    1
   145    46    44   ar
   146    47    45   ar
   147    40    39    1
   148    40    43    1
   149    34    33    2
   150    27    26    1
   151    27    28    1
   152     6     9    1
   153    45    44   ar
   154    44    43    1
   155    33    39   am
   156    33    32    1
   157    22    23    2
   158    32    31    1
   159    28    29    2
   160     9    10    1
   161     9    11    1
