@<TRIPOS>MOLECULE
tmp/3cixA03.pdb
 96 91 0 0 0
SMALL
GASTEIGER

@<TRIPOS>ATOM
      1  N         67.5690   -3.8030   -2.6590 N.3    28  ARG28      -0.1245
      2  CA        66.9590   -2.5320   -3.1110 C.3    28  ARG28       0.1563
      3  C         66.1610   -2.6910   -4.4160 C.2    28  ARG28       0.2260
      4  O         65.0320   -2.2130   -4.5390 O.2    28  ARG28      -0.2867
      5  CB        68.0320   -1.4480   -3.2440 C.3    28  ARG28       0.0307
      6  CG        67.4700   -0.0210   -3.1800 C.3    28  ARG28       0.0489
      7  CD        67.3040    0.5630   -1.7850 C.3    28  ARG28       0.2205
      8  NE        68.5920    0.7520   -1.1080 N.pl3  28  ARG28      -0.0865
      9  CZ        69.1200   -0.1730   -0.3350 C.cat  28  ARG28       0.5346
     10  NH1       68.4450   -1.2960   -0.1810 N.pl3  28  ARG28       0.1354
     11  NH2       70.2900   -0.0270    0.2870 N.pl3  28  ARG28       0.1354
     12  N         62.9100   -4.5470   -3.6770 N.3    31  ASN31      -0.1225
     13  CA        61.9890   -3.6660   -2.9230 C.3    31  ASN31       0.1785
     14  C         61.3440   -2.6530   -3.8470 C.2    31  ASN31       0.2597
     15  O         60.1350   -2.4770   -3.8340 O.2    31  ASN31      -0.2718
     16  CB        62.6980   -2.9320   -1.7790 C.3    31  ASN31       0.1169
     17  CG        63.0270   -3.8390   -0.5960 C.2    31  ASN31       0.2627
     18  OD1       62.5200   -4.9650   -0.4940 O.2    31  ASN31      -0.2716
     19  ND2       63.8420   -3.3210    0.3350 N.am   31  ASN31      -0.0877
     20  N         62.1560   -2.0210   -4.6920 N.am   32  GLU32      -0.1979
     21  CA        61.6460   -1.0020   -5.6210 C.3    32  GLU32       0.1602
     22  C         60.6460   -1.5970   -6.6260 C.2    32  GLU32       0.2287
     23  O         59.6360   -0.9630   -6.9570 O.2    32  GLU32      -0.2864
     24  CB        62.8090   -0.2830   -6.3100 C.3    32  GLU32       0.0415
     25  CG        63.6490    0.5510   -5.3360 C.3    32  GLU32       0.1163
     26  CD        64.6920    1.4470   -5.9870 C.2    32  GLU32       0.3649
     27  OE1       64.8230    1.4620   -7.2300 O.co2  32  GLU32      -0.2457
     28  OE2       65.3980    2.1350   -5.2270 O.co2  32  GLU32      -0.2457
     29  N         57.3880   -2.1550   -4.7590 N.3    35  PHE35      -0.1241
     30  CA        56.6470   -0.8970   -4.5950 C.3    35  PHE35       0.1605
     31  C         55.9910   -0.4900   -5.9210 C.2    35  PHE35       0.2264
     32  O         54.8630   -0.0550   -5.9360 O.2    35  PHE35      -0.2867
     33  CB        57.5370    0.2050   -4.0650 C.3    35  PHE35       0.0534
     34  CG        58.1830   -0.1080   -2.7360 C.ar   35  PHE35      -0.0203
     35  CD1       57.4810   -0.7980   -1.7610 C.ar   35  PHE35      -0.0042
     36  CD2       59.4830    0.3540   -2.4580 C.ar   35  PHE35      -0.0042
     37  CE1       58.0800   -1.0810   -0.5250 C.ar   35  PHE35      -0.0003
     38  CE2       60.0780    0.0960   -1.2250 C.ar   35  PHE35      -0.0003
     39  CZ        59.3660   -0.6300   -0.2680 C.ar   35  PHE35      -0.0000
     40  N         61.8670    1.3110   17.5910 N.3   241  LYS241     -0.1245
     41  CA        60.8340    1.7020   16.6220 C.3   241  LYS241      0.1561
     42  C         60.7310    0.6930   15.4730 C.2   241  LYS241      0.2260
     43  O         61.7240    0.0230   15.0920 O.2   241  LYS241     -0.2867
     44  CB        61.0900    3.1090   16.0760 C.3   241  LYS241      0.0271
     45  CG        62.2130    3.1990   15.0390 C.3   241  LYS241      0.0035
     46  CD        62.4050    4.6470   14.5880 C.3   241  LYS241      0.0206
     47  CE        63.7090    4.8620   13.8310 C.3   241  LYS241      0.1093
     48  NZ        63.8130    6.3250   13.5130 N.3   241  LYS241     -0.1314
     49  N         60.6260    1.6990    8.8840 N.3   244  PHE244     -0.1227
     50  CA        59.7870    2.2900    7.8220 C.3   244  PHE244      0.1736
     51  C         59.6980    1.4100    6.5650 C.2   244  PHE244      0.2596
     52  O         58.6120    1.1950    6.0480 O.2   244  PHE244     -0.2718
     53  CB        60.2730    3.7040    7.4910 C.3   244  PHE244      0.0547
     54  CG        59.5120    4.3640    6.3670 C.ar  244  PHE244     -0.0202
     55  CD1       58.3000    5.0050    6.6050 C.ar  244  PHE244     -0.0042
     56  CD2       60.0180    4.3470    5.0720 C.ar  244  PHE244     -0.0042
     57  CE1       57.6050    5.6300    5.5560 C.ar  244  PHE244     -0.0003
     58  CE2       59.3040    4.9640    4.0270 C.ar  244  PHE244     -0.0003
     59  CZ        58.1080    5.5940    4.2830 C.ar  244  PHE244     -0.0000
     60  N         60.8290    0.9450    6.0420 N.am  245  THR245     -0.1953
     61  CA        60.8400    0.1990    4.7780 C.3   245  THR245      0.1897
     62  C         60.0670   -1.1280    4.9110 C.2   245  THR245      0.2313
     63  O         59.2890   -1.5060    4.0340 O.2   245  THR245     -0.2863
     64  CB        62.2920    0.0050    4.2720 C.3   245  THR245      0.1794
     65  OG1       62.9460    1.2860    4.1820 O.3   245  THR245     -0.2208
     66  CG2       62.3290   -0.7130    2.9230 C.3   245  THR245      0.0378
     67  N         56.4780   -0.2510    4.9600 N.3   248  LEU248     -0.1245
     68  CA        56.0730    0.1120    3.5870 C.3   248  LEU248      0.1561
     69  C         55.8470   -1.1640    2.7440 C.2   248  LEU248      0.2260
     70  O         54.9380   -1.2530    1.9530 O.2   248  LEU248     -0.2867
     71  CB        57.1670    1.0010    2.9620 C.3   248  LEU248      0.0270
     72  CG        56.8630    1.6710    1.6400 C.3   248  LEU248      0.0019
     73  CD1       55.6380    2.5950    1.7930 C.3   248  LEU248      0.0001
     74  CD2       58.1040    2.4530    1.1300 C.3   248  LEU248      0.0001
     75  N         59.3880    9.0630    9.3220 N.3   273  VAL273     -0.1231
     76  CA        60.2100    9.5760    8.2320 C.3   273  VAL273      0.1678
     77  C         59.5290   10.8090    7.6630 C.2   273  VAL273      0.2434
     78  O         58.3420   10.7390    7.3250 O.2   273  VAL273     -0.2733
     79  CB        60.3640    8.4760    7.0960 C.3   273  VAL273      0.0265
     80  CG1       60.8980    9.0640    5.7370 C.3   273  VAL273      0.0020
     81  CG2       61.2160    7.2870    7.5980 C.3   273  VAL273      0.0020
     82  N         60.2580   11.9420    7.5450 N.am  274  PRO274     -0.2729
     83  CA        59.7030   13.1120    6.8770 C.3   274  PRO274      0.1401
     84  C         59.2820   12.7560    5.4620 C.2   274  PRO274      0.2269
     85  O         60.0690   12.2160    4.6980 O.2   274  PRO274     -0.2865
     86  CB        60.8760   14.0880    6.8580 C.3   274  PRO274      0.0296
     87  CG        61.6830   13.6590    8.0630 C.3   274  PRO274      0.0237
     88  CD        61.6360   12.1980    8.0110 C.3   274  PRO274      0.0939
     89  N         55.3230    8.9820    0.3710 N.3   279  ILE279     -0.1245
     90  CA        55.9390    7.7420   -0.1300 C.3   279  ILE279      0.1561
     91  C         54.9050    6.6120   -0.1050 C.2   279  ILE279      0.2260
     92  O         54.7460    5.8660   -1.0730 O.2   279  ILE279     -0.2867
     93  CB        57.1690    7.3530    0.7330 C.3   279  ILE279      0.0252
     94  CG1       58.2880    8.3740    0.5130 C.3   279  ILE279      0.0019
     95  CG2       57.6490    5.9370    0.4700 C.3   279  ILE279      0.0019
     96  CD1       59.3630    8.3600    1.6420 C.3   279  ILE279      0.0001
@<TRIPOS>BOND
     1    27    26   ar
     2    23    22    2
     3    22    21    1
     4    24    21    1
     5    24    25    1
     6    26    25    1
     7    26    28   ar
     8    32    31    2
     9    31    30    1
    10    21    20    1
    11    29    30    1
    12    20    14   am
    13    30    33    1
    14     4     3    2
    15     3     2    1
    16    33    34    1
    17    14    15    2
    18    14    13    1
    19    12    13    1
    20     5     6    1
    21     5     2    1
    22     6     7    1
    23     2     1    1
    24    13    16    1
    25    34    36   ar
    26    34    35   ar
    27    36    38   ar
    28     7     8    1
    29    16    17    1
    30    35    37   ar
    31    38    39   ar
    32     8     9    2
    33    92    91    2
    34    17    18    2
    35    17    19   am
    36    37    39   ar
    37     9    10    1
    38     9    11    1
    39    90    91    1
    40    90    89    1
    41    90    93    1
    42    95    93    1
    43    94    93    1
    44    94    96    1
    45    74    72    1
    46    72    73    1
    47    72    71    1
    48    70    69    2
    49    69    68    1
    50    66    64    1
    51    71    68    1
    52    68    67    1
    53    58    59   ar
    54    58    56   ar
    55    63    62    2
    56    65    64    1
    57    64    61    1
    58    59    57   ar
    59    85    84    2
    60    61    62    1
    61    61    60    1
    62    56    54   ar
    63    84    83    1
    64    57    55   ar
    65    80    79    1
    66    60    51   am
    67    52    51    2
    68    54    55   ar
    69    54    53    1
    70    51    50    1
    71    86    83    1
    72    86    87    1
    73    83    82    1
    74    79    81    1
    75    79    76    1
    76    78    77    2
    77    53    50    1
    78    82    77   am
    79    82    88    1
    80    77    76    1
    81    50    49    1
    82    88    87    1
    83    76    75    1
    84    48    47    1
    85    47    46    1
    86    46    45    1
    87    45    44    1
    88    43    42    2
    89    42    41    1
    90    44    41    1
    91    41    40    1
