@<TRIPOS>MOLECULE
tmp/3ciyD04.pdb
 105 94 0 0 0
SMALL
GASTEIGER

@<TRIPOS>ATOM
      1  N        -43.9660  -58.5250  -43.0970 N.3   304  LYS304     -0.1245
      2  CA       -42.6490  -58.8690  -42.6080 C.3   304  LYS304      0.1561
      3  C        -42.0460  -59.8860  -43.5670 C.2   304  LYS304      0.2260
      4  O        -42.5480  -60.9960  -43.7010 O.2   304  LYS304     -0.2867
      5  CB       -42.7490  -59.4480  -41.1940 C.3   304  LYS304      0.0271
      6  CG       -41.4010  -59.5190  -40.5040 C.3   304  LYS304      0.0035
      7  CD       -41.4920  -59.9730  -39.0700 C.3   304  LYS304      0.0206
      8  CE       -40.1030  -60.0170  -38.4680 C.3   304  LYS304      0.1093
      9  NZ       -40.0970  -60.4300  -37.0350 N.3   304  LYS304     -0.1314
     10  N        -41.0620  -54.8910  -42.2880 N.3   337  ASP337     -0.1239
     11  CA       -39.6510  -55.1710  -42.0320 C.3   337  ASP337      0.1674
     12  C        -39.0730  -56.2390  -42.9450 C.2   337  ASP337      0.2266
     13  O        -39.8000  -56.8870  -43.6920 O.2   337  ASP337     -0.2867
     14  CB       -39.4480  -55.6140  -40.5880 C.3   337  ASP337      0.1410
     15  CG       -40.0480  -54.6450  -39.6140 C.2   337  ASP337      0.3668
     16  OD1      -40.0280  -53.4270  -39.9180 O.co2 337  ASP337     -0.2456
     17  OD2      -40.5310  -55.1000  -38.5520 O.co2 337  ASP337     -0.2456
     18  N        -43.7390  -49.4830  -39.0760 N.3   359  SER359     -0.1217
     19  CA       -42.3860  -49.9900  -38.9450 C.3   359  SER359      0.1889
     20  C        -41.7520  -50.2630  -40.3010 C.2   359  SER359      0.2288
     21  O        -42.3630  -50.8770  -41.1790 O.2   359  SER359     -0.2866
     22  CB       -42.3690  -51.2640  -38.1190 C.3   359  SER359      0.2089
     23  OG       -41.0390  -51.7200  -38.0040 O.3   359  SER359     -0.2183
     24  N        -38.1320  -51.2630  -40.5070 N.3   361  SER361     -0.1217
     25  CA       -36.7990  -51.7030  -40.1240 C.3   361  SER361      0.1889
     26  C        -36.2490  -52.6690  -41.1670 C.2   361  SER361      0.2288
     27  O        -36.8170  -53.7330  -41.4060 O.2   361  SER361     -0.2866
     28  CB       -36.8490  -52.3940  -38.7650 C.3   361  SER361      0.2089
     29  OG       -35.6010  -52.9760  -38.4410 O.3   361  SER361     -0.2183
     30  N        -45.7540  -44.0390  -34.1150 N.3   385  THR385     -0.1218
     31  CA       -44.5490  -44.8680  -34.1120 C.3   385  THR385      0.1862
     32  C        -43.9120  -45.0410  -35.4900 C.2   385  THR385      0.2287
     33  O        -44.6080  -45.2870  -36.4810 O.2   385  THR385     -0.2866
     34  CB       -44.8510  -46.2710  -33.6010 C.3   385  THR385      0.1770
     35  OG1      -46.1990  -46.3230  -33.1290 O.3   385  THR385     -0.2211
     36  CG2      -43.8710  -46.6460  -32.4770 C.3   385  THR385      0.0375
     37  N        -40.3400  -47.0340  -36.8470 N.3   387  ASN387     -0.1240
     38  CA       -39.0250  -47.6570  -36.6870 C.3   387  ASN387      0.1653
     39  C        -38.3410  -47.6580  -38.0530 C.2   387  ASN387      0.2266
     40  O        -38.8810  -48.2040  -39.0220 O.2   387  ASN387     -0.2867
     41  CB       -39.1490  -49.0980  -36.1490 C.3   387  ASN387      0.1155
     42  CG       -37.7990  -49.7470  -35.8680 C.2   387  ASN387      0.2627
     43  OD1      -36.9640  -49.8090  -36.7770 O.2   387  ASN387     -0.2716
     44  ND2      -37.5570  -50.2150  -34.6330 N.am  387  ASN387     -0.0877
     45  N        -34.8340  -48.3240  -38.1670 N.3   389  THR389     -0.1203
     46  CA       -33.5670  -48.9630  -37.8980 C.3   389  THR389      0.1994
     47  C        -33.1670  -49.8970  -39.0220 C.2   389  THR389      0.2617
     48  O        -34.0210  -50.4960  -39.6700 O.2   389  THR389     -0.2717
     49  CB       -33.6670  -49.7870  -36.6480 C.3   389  THR389      0.1784
     50  OG1      -34.7480  -50.7170  -36.7850 O.3   389  THR389     -0.2211
     51  CG2      -33.9150  -48.8840  -35.4620 C.3   389  THR389      0.0376
     52  N        -31.8640  -50.0210  -39.2460 N.am  390  LYS390     -0.1979
     53  CA       -31.3480  -50.9150  -40.2710 C.3   390  LYS390      0.1596
     54  C        -31.7780  -50.5830  -41.7000 C.2   390  LYS390      0.2287
     55  O        -32.3450  -51.4270  -42.3960 O.2   390  LYS390     -0.2864
     56  CB       -31.7760  -52.3430  -39.9560 C.3   390  LYS390      0.0298
     57  CG       -31.2950  -52.8490  -38.6110 C.3   390  LYS390      0.0038
     58  CD       -32.1870  -53.9960  -38.1490 C.3   390  LYS390      0.0206
     59  CE       -31.6210  -54.7510  -36.9550 C.3   390  LYS390      0.1093
     60  NZ       -30.4720  -55.6290  -37.3230 N.3   390  LYS390     -0.1314
     61  N        -43.0300  -41.5940  -31.0260 N.3   409  ILE409     -0.1245
     62  CA       -41.8470  -42.4450  -30.9190 C.3   409  ILE409      0.1561
     63  C        -41.2480  -42.6830  -32.3040 C.2   409  ILE409      0.2260
     64  O        -41.8510  -43.3320  -33.1650 O.2   409  ILE409     -0.2867
     65  CB       -42.1650  -43.8190  -30.2550 C.3   409  ILE409      0.0252
     66  CG1      -42.2980  -43.6590  -28.7370 C.3   409  ILE409      0.0019
     67  CG2      -41.0660  -44.8270  -30.5730 C.3   409  ILE409      0.0019
     68  CD1      -43.5750  -42.9620  -28.2770 C.3   409  ILE409      0.0001
     69  N        -37.6350  -43.8840  -34.3620 N.3   411  ASP411     -0.1239
     70  CA       -36.4150  -44.6640  -34.1700 C.3   411  ASP411      0.1674
     71  C        -35.4890  -44.7790  -35.3780 C.2   411  ASP411      0.2266
     72  O        -35.7750  -45.5100  -36.3280 O.2   411  ASP411     -0.2867
     73  CB       -36.7910  -46.0640  -33.6970 C.3   411  ASP411      0.1410
     74  CG       -35.5820  -46.9410  -33.4020 C.2   411  ASP411      0.3668
     75  OD1      -35.7800  -48.0190  -32.7850 O.co2 411  ASP411     -0.2456
     76  OD2      -34.4470  -46.5660  -33.7890 O.co2 411  ASP411     -0.2456
     77  N        -29.2410  -47.9980  -35.2870 N.3   414  LEU414     -0.1245
     78  CA       -28.5580  -48.9670  -36.1240 C.3   414  LEU414      0.1561
     79  C        -28.5670  -48.5500  -37.5710 C.2   414  LEU414      0.2260
     80  O        -28.9760  -49.3170  -38.4470 O.2   414  LEU414     -0.2867
     81  CB       -29.2190  -50.3290  -35.9770 C.3   414  LEU414      0.0270
     82  CG       -28.8710  -50.9710  -34.6430 C.3   414  LEU414      0.0019
     83  CD1      -29.8630  -52.0690  -34.3250 C.3   414  LEU414      0.0001
     84  CD2      -27.4340  -51.5020  -34.6990 C.3   414  LEU414      0.0001
     85  N        -39.9690  -39.9440  -27.5920 N.3   434  GLU434     -0.1245
     86  CA       -38.5870  -40.3840  -27.5180 C.3   434  GLU434      0.1567
     87  C        -37.9450  -40.5180  -28.8950 C.2   434  GLU434      0.2260
     88  O        -38.6110  -40.8180  -29.8820 O.2   434  GLU434     -0.2867
     89  CB       -38.4800  -41.7170  -26.7530 C.3   434  GLU434      0.0388
     90  CG       -39.2630  -42.9130  -27.3200 C.3   434  GLU434      0.1160
     91  CD       -38.7450  -44.2750  -26.8040 C.2   434  GLU434      0.3649
     92  OE1      -39.5310  -45.2590  -26.8280 O.co2 434  GLU434     -0.2457
     93  OE2      -37.5550  -44.3670  -26.3910 O.co2 434  GLU434     -0.2457
     94  N        -34.8980  -42.6170  -30.3200 N.3   436  TYR436     -0.1241
     95  CA       -33.8440  -43.6170  -30.2000 C.3   436  TYR436      0.1605
     96  C        -32.9360  -43.3870  -31.4010 C.2   436  TYR436      0.2264
     97  O        -33.3400  -43.6350  -32.5350 O.2   436  TYR436     -0.2867
     98  CB       -34.4550  -45.0160  -30.2410 C.3   436  TYR436      0.0534
     99  CG       -33.4780  -46.1750  -30.1210 C.ar  436  TYR436     -0.0201
    100  CD1      -32.9120  -46.5280  -28.8860 C.ar  436  TYR436     -0.0009
    101  CD2      -33.1490  -46.9500  -31.2440 C.ar  436  TYR436     -0.0009
    102  CE1      -32.0420  -47.6370  -28.7750 C.ar  436  TYR436      0.0417
    103  CE2      -32.2890  -48.0520  -31.1490 C.ar  436  TYR436      0.0417
    104  CZ       -31.7420  -48.3930  -29.9170 C.ar  436  TYR436      0.1957
    105  OH       -30.9130  -49.4920  -29.8300 O.3   436  TYR436     -0.2866
@<TRIPOS>BOND
     1     4     3    2
     2    13    12    2
     3     3     2    1
     4     1     2    1
     5    12    11    1
     6     2     5    1
     7    55    54    2
     8    10    11    1
     9    11    14    1
    10    54    53    1
    11    27    26    2
    12     5     6    1
    13    21    20    2
    14    26    25    1
    15    14    15    1
    16    24    25    1
    17     6     7    1
    18    20    19    1
    19    53    56    1
    20    53    52    1
    21    25    28    1
    22    56    57    1
    23    16    15   ar
    24    48    47    2
    25    15    17   ar
    26    52    47   am
    27    18    19    1
    28     7     8    1
    29    47    46    1
    30    40    39    2
    31    19    22    1
    32    28    29    1
    33    57    58    1
    34     8     9    1
    35    80    79    2
    36    45    46    1
    37    58    59    1
    38    22    23    1
    39    39    38    1
    40    46    49    1
    41    79    78    1
    42    60    59    1
    43    37    38    1
    44    50    49    1
    45    43    42    2
    46    38    41    1
    47    49    51    1
    48    33    32    2
    49    72    71    2
    50    41    42    1
    51    78    81    1
    52    78    77    1
    53    81    82    1
    54    42    44   am
    55    32    31    1
    56    71    70    1
    57    84    82    1
    58    82    83    1
    59    69    70    1
    60    70    73    1
    61    30    31    1
    62    31    34    1
    63    76    74   ar
    64    73    74    1
    65    34    35    1
    66    34    36    1
    67    74    75   ar
    68    64    63    2
    69    97    96    2
    70    63    62    1
    71    96    95    1
    72   101   103   ar
    73   101    99   ar
    74   103   104   ar
    75    61    62    1
    76    62    65    1
    77    67    65    1
    78    94    95    1
    79    65    66    1
    80    98    95    1
    81    98    99    1
    82    99   100   ar
    83   104   105    1
    84   104   102   ar
    85    88    87    2
    86    87    86    1
    87   100   102   ar
    88    66    68    1
    89    85    86    1
    90    86    89    1
    91    90    91    1
    92    90    89    1
    93    92    91   ar
    94    91    93   ar
