@<TRIPOS>MOLECULE
tmp/3cizB00.pdb
 97 94 0 0 0
SMALL
GASTEIGER

@<TRIPOS>ATOM
      1  N        -34.3420   68.8800   39.4690 N.3   418  LEU418     -0.1245
      2  CA       -33.5090   69.4200   38.4000 C.3   418  LEU418      0.1561
      3  C        -32.0200   69.0830   38.5990 C.2   418  LEU418      0.2260
      4  O        -31.3370   68.6900   37.6600 O.2   418  LEU418     -0.2867
      5  CB       -33.6920   70.9400   38.3290 C.3   418  LEU418      0.0270
      6  CG       -32.7960   71.6950   37.3490 C.3   418  LEU418      0.0019
      7  CD1      -33.3660   71.5090   35.9480 C.3   418  LEU418      0.0001
      8  CD2      -32.7330   73.1650   37.7140 C.3   418  LEU418      0.0001
      9  N        -31.1880   65.1510   38.4220 N.3   421  ARG421     -0.1231
     10  CA       -31.3200   64.6370   37.0620 C.3   421  ARG421      0.1694
     11  C        -30.1920   65.0890   36.1570 C.2   421  ARG421      0.2591
     12  O        -29.6140   64.2750   35.4380 O.2   421  ARG421     -0.2718
     13  CB       -32.6570   65.0490   36.4610 C.3   421  ARG421      0.0321
     14  CG       -33.8150   64.3400   37.0920 C.3   421  ARG421      0.0489
     15  CD       -35.1110   64.9540   36.6550 C.3   421  ARG421      0.2205
     16  NE       -35.5820   64.3960   35.3940 N.pl3 421  ARG421     -0.0865
     17  CZ       -36.4640   65.0000   34.6010 C.cat 421  ARG421      0.5346
     18  NH1      -36.9600   66.1870   34.9360 N.pl3 421  ARG421      0.1354
     19  NH2      -36.8530   64.4180   33.4800 N.pl3 421  ARG421      0.1354
     20  N        -29.8840   66.3850   36.1960 N.am  422  MET422     -0.1979
     21  CA       -28.9350   66.9820   35.2460 C.3   422  MET422      0.1605
     22  C        -27.4790   66.8020   35.6530 C.2   422  MET422      0.2287
     23  O        -26.5920   66.6770   34.7950 O.2   422  MET422     -0.2864
     24  CB       -29.2300   68.4710   35.0390 C.3   422  MET422      0.0413
     25  CG       -30.5010   68.7610   34.2540 C.3   422  MET422      0.0598
     26  SD       -30.6890   70.5160   33.8910 S.3   422  MET422     -0.1393
     27  CE       -29.8610   70.6810   32.3110 C.3   422  MET422      0.0692
     28  N        -40.1890   63.0540   33.3880 N.3   472  SER472     -0.1202
     29  CA       -40.8400   63.9870   32.4640 C.3   472  SER472      0.2020
     30  C        -40.9980   65.4090   32.9960 C.2   472  SER472      0.2619
     31  O        -41.4310   66.2990   32.2600 O.2   472  SER472     -0.2717
     32  CB       -42.2150   63.4520   32.0590 C.3   472  SER472      0.2103
     33  OG       -42.0740   62.2810   31.2800 O.3   472  SER472     -0.2182
     34  N        -40.6530   65.6170   34.2670 N.am  473  LEU473     -0.1965
     35  CA       -40.7750   66.9330   34.8970 C.3   473  LEU473      0.1728
     36  C        -40.0260   68.0300   34.1650 C.2   473  LEU473      0.2616
     37  O        -38.8750   67.8550   33.7490 O.2   473  LEU473     -0.2715
     38  CB       -40.3470   66.9040   36.3750 C.3   473  LEU473      0.0311
     39  CG       -41.2450   66.1090   37.3290 C.3   473  LEU473      0.0022
     40  CD1      -40.8640   66.4440   38.7490 C.3   473  LEU473      0.0001
     41  CD2      -42.7400   66.3920   37.0910 C.3   473  LEU473      0.0001
     42  N        -40.7090   69.1620   34.0150 N.am  474  HIS474     -0.1973
     43  CA       -40.1520   70.3490   33.3840 C.3   474  HIS474      0.1656
     44  C        -40.8310   71.5840   33.9860 C.2   474  HIS474      0.2291
     45  O        -41.7770   71.4640   34.7780 O.2   474  HIS474     -0.2864
     46  CB       -40.3850   70.3000   31.8630 C.3   474  HIS474      0.0771
     47  CG       -41.8320   70.3360   31.4820 C.ar  474  HIS474      0.0820
     48  ND1      -42.4880   71.5030   31.1510 N.ar  474  HIS474     -0.2267
     49  CD2      -42.7590   69.3530   31.4190 C.ar  474  HIS474      0.1154
     50  CE1      -43.7520   71.2300   30.8810 C.ar  474  HIS474      0.1986
     51  NE2      -43.9420   69.9320   31.0370 N.ar  474  HIS474     -0.2212
     52  N        -39.6640   74.0140   36.0760 N.3   476  TYR476     -0.1241
     53  CA       -39.4190   74.1140   37.5040 C.3   476  TYR476      0.1605
     54  C        -39.6290   75.5540   37.9470 C.2   476  TYR476      0.2264
     55  O        -39.5850   76.4690   37.1190 O.2   476  TYR476     -0.2867
     56  CB       -37.9890   73.6570   37.8110 C.3   476  TYR476      0.0534
     57  CG       -37.7550   72.1650   37.6490 C.ar  476  TYR476     -0.0201
     58  CD1      -37.2630   71.6420   36.4480 C.ar  476  TYR476     -0.0009
     59  CD2      -37.9900   71.2830   38.7140 C.ar  476  TYR476     -0.0009
     60  CE1      -37.0400   70.2830   36.2950 C.ar  476  TYR476      0.0417
     61  CE2      -37.7620   69.9130   38.5770 C.ar  476  TYR476      0.0417
     62  CZ       -37.2830   69.4240   37.3710 C.ar  476  TYR476      0.1957
     63  OH       -37.0600   68.0860   37.2300 O.3   476  TYR476     -0.2866
     64  N        -26.4250   69.2640   30.0510 N.3   500  ARG500     -0.1245
     65  CA       -27.2960   68.7520   28.9860 C.3   500  ARG500      0.1563
     66  C        -26.4650   68.1270   27.8530 C.2   500  ARG500      0.2260
     67  O        -26.7500   67.0100   27.4040 O.2   500  ARG500     -0.2867
     68  CB       -28.1880   69.8820   28.4490 C.3   500  ARG500      0.0307
     69  CG       -29.2730   69.4470   27.4830 C.3   500  ARG500      0.0489
     70  CD       -30.0460   70.6540   26.9520 C.3   500  ARG500      0.2205
     71  NE       -31.4830   70.3850   26.8770 N.pl3 500  ARG500     -0.0865
     72  CZ       -32.1190   69.9010   25.8100 C.cat 500  ARG500      0.5346
     73  NH1      -31.4580   69.6170   24.6920 N.pl3 500  ARG500      0.1354
     74  NH2      -33.4290   69.6990   25.8650 N.pl3 500  ARG500      0.1354
     75  N        -34.9490   63.7120   29.3970 N.3   527  TRP527     -0.1241
     76  CA       -34.9000   65.1790   29.5040 C.3   527  TRP527      0.1605
     77  C        -33.8890   65.8720   28.5690 C.2   527  TRP527      0.2264
     78  O        -34.0190   67.0650   28.2800 O.2   527  TRP527     -0.2867
     79  CB       -34.6160   65.6200   30.9610 C.3   527  TRP527      0.0550
     80  CG       -33.2740   65.1600   31.5190 C.ar  527  TRP527      0.0003
     81  CD1      -33.0360   64.0220   32.2360 C.ar  527  TRP527      0.0946
     82  CD2      -32.0080   65.8220   31.3930 C.ar  527  TRP527      0.0152
     83  NE1      -31.7040   63.9380   32.5700 N.ar  527  TRP527     -0.2442
     84  CE2      -31.0500   65.0250   32.0640 C.ar  527  TRP527      0.0810
     85  CE3      -31.5860   67.0090   30.7800 C.ar  527  TRP527      0.0012
     86  CZ2      -29.6960   65.3730   32.1300 C.ar  527  TRP527      0.0191
     87  CZ3      -30.2280   67.3570   30.8560 C.ar  527  TRP527      0.0001
     88  CH2      -29.3110   66.5390   31.5270 C.ar  527  TRP527      0.0015
     89  N        -38.1350   63.5880   22.2040 N.3   532  LYS532     -0.1245
     90  CA       -38.3000   62.7000   23.3490 C.3   532  LYS532      0.1561
     91  C        -38.7740   61.3120   22.9400 C.2   532  LYS532      0.2260
     92  O        -39.5890   61.1750   22.0280 O.2   532  LYS532     -0.2867
     93  CB       -39.2900   63.3140   24.3480 C.3   532  LYS532      0.0271
     94  CG       -38.6670   64.2310   25.3980 C.3   532  LYS532      0.0035
     95  CD       -38.4310   65.6330   24.8750 C.3   532  LYS532      0.0206
     96  CE       -38.0650   66.5910   25.9950 C.3   532  LYS532      0.1093
     97  NZ       -36.8210   66.2030   26.7090 N.3   532  LYS532     -0.1314
@<TRIPOS>BOND
     1    92    91    2
     2    89    90    1
     3    91    90    1
     4    90    93    1
     5    93    94    1
     6    73    72    1
     7    95    94    1
     8    95    96    1
     9    72    74    1
    10    72    71    2
    11    96    97    1
    12    71    70    1
    13    70    69    1
    14    67    66    2
    15    69    68    1
    16    66    65    1
    17    78    77    2
    18    68    65    1
    19    77    76    1
    20    65    64    1
    21    75    76    1
    22    76    79    1
    23    85    87   ar
    24    85    82   ar
    25    87    88   ar
    26    50    51   ar
    27    50    48   ar
    28    79    80    1
    29    51    49   ar
    30    48    47   ar
    31    33    32    1
    32    82    80   ar
    33    82    84   ar
    34    49    47   ar
    35    47    46    1
    36    80    81   ar
    37    88    86   ar
    38    46    43    1
    39    32    29    1
    40    84    86   ar
    41    84    83   ar
    42    81    83   ar
    43    31    30    2
    44    27    26    1
    45    29    30    1
    46    29    28    1
    47    30    34   am
    48    43    44    1
    49    43    42    1
    50    19    17    1
    51    37    36    2
    52    26    25    1
    53    44    45    2
    54    42    36   am
    55    36    35    1
    56    25    24    1
    57    34    35    1
    58    17    18    1
    59    17    16    2
    60    23    22    2
    61    35    38    1
    62    24    21    1
    63    21    22    1
    64    21    20    1
    65    16    15    1
    66    12    11    2
    67     7     6    1
    68    52    53    1
    69    11    20   am
    70    11    10    1
    71    60    58   ar
    72    60    62   ar
    73    38    39    1
    74    58    57   ar
    75    13    10    1
    76    13    14    1
    77    15    14    1
    78    10     9    1
    79    41    39    1
    80    55    54    2
    81    63    62    1
    82    39    40    1
    83     6     8    1
    84     6     5    1
    85    62    61   ar
    86    53    56    1
    87    53    54    1
    88    57    56    1
    89    57    59   ar
    90     4     3    2
    91     5     2    1
    92     2     3    1
    93     2     1    1
    94    61    59   ar
