@<TRIPOS>MOLECULE
tmp/3cj0B00.pdb
 96 94 0 0 0
SMALL
GASTEIGER

@<TRIPOS>ATOM
      1  N        -34.5880   67.8790   36.4930 N.3   418  LEU418     -0.1245
      2  CA       -33.8240   68.3940   35.3470 C.3   418  LEU418      0.1561
      3  C        -32.3130   68.0990   35.5190 C.2   418  LEU418      0.2260
      4  O        -31.6210   67.6690   34.5810 O.2   418  LEU418     -0.2867
      5  CB       -34.0660   69.9140   35.2410 C.3   418  LEU418      0.0270
      6  CG       -33.2900   70.8060   34.2580 C.3   418  LEU418      0.0019
      7  CD1      -33.6020   70.3870   32.8360 C.3   418  LEU418      0.0001
      8  CD2      -33.6940   72.2440   34.4900 C.3   418  LEU418      0.0001
      9  N        -31.3700   64.0950   35.5140 N.3   421  ARG421     -0.1231
     10  CA       -31.4470   63.5940   34.1430 C.3   421  ARG421      0.1694
     11  C        -30.3310   64.1260   33.2400 C.2   421  ARG421      0.2591
     12  O        -29.7090   63.3620   32.5070 O.2   421  ARG421     -0.2718
     13  CB       -32.8020   63.9730   33.5440 C.3   421  ARG421      0.0321
     14  CG       -33.9810   63.3140   34.2590 C.3   421  ARG421      0.0489
     15  CD       -35.2840   63.9020   33.7730 C.3   421  ARG421      0.2205
     16  NE       -35.6730   63.3070   32.5000 N.pl3 421  ARG421     -0.0865
     17  CZ       -36.6640   63.7440   31.7250 C.cat 421  ARG421      0.5346
     18  NH1      -37.3770   64.8240   32.0480 N.pl3 421  ARG421      0.1354
     19  NH2      -36.9180   63.1070   30.6130 N.pl3 421  ARG421      0.1354
     20  N        -30.0940   65.4380   33.2860 N.am  422  MET422     -0.1979
     21  CA       -29.1820   66.0650   32.3170 C.3   422  MET422      0.1605
     22  C        -27.7330   65.8650   32.7200 C.2   422  MET422      0.2287
     23  O        -26.8630   65.7030   31.8580 O.2   422  MET422     -0.2864
     24  CB       -29.4870   67.5470   32.1320 C.3   422  MET422      0.0413
     25  CG       -30.7970   67.7810   31.3780 C.3   422  MET422      0.0598
     26  SD       -30.8790   69.4500   30.7780 S.3   422  MET422     -0.1393
     27  CE       -29.8830   69.3670   29.2830 C.3   422  MET422      0.0692
     28  N        -40.8590   64.2960   31.4590 N.3   473  LEU473     -0.1231
     29  CA       -41.0950   65.6160   32.0290 C.3   473  LEU473      0.1693
     30  C        -40.3850   66.6920   31.2110 C.2   473  LEU473      0.2592
     31  O        -39.2580   66.4850   30.7340 O.2   473  LEU473     -0.2718
     32  CB       -40.6960   65.7000   33.5130 C.3   473  LEU473      0.0284
     33  CG       -41.4800   64.9090   34.5820 C.3   473  LEU473      0.0019
     34  CD1      -41.1690   65.4780   35.9430 C.3   473  LEU473      0.0001
     35  CD2      -43.0020   64.9100   34.3590 C.3   473  LEU473      0.0001
     36  N        -41.0590   67.8290   31.0490 N.am  474  HIS474     -0.1962
     37  CA       -40.5230   68.9710   30.3300 C.3   474  HIS474      0.1787
     38  C        -41.2000   70.2410   30.8520 C.2   474  HIS474      0.2621
     39  O        -42.1040   70.1710   31.6930 O.2   474  HIS474     -0.2715
     40  CB       -40.7310   68.8040   28.8150 C.3   474  HIS474      0.0785
     41  CG       -42.1700   68.8430   28.4000 C.ar  474  HIS474      0.0821
     42  ND1      -42.7950   70.0020   27.9840 N.ar  474  HIS474     -0.2267
     43  CD2      -43.1180   67.8780   28.3870 C.ar  474  HIS474      0.1154
     44  CE1      -44.0650   69.7440   27.7230 C.ar  474  HIS474      0.1986
     45  NE2      -44.2840   68.4610   27.9530 N.ar  474  HIS474     -0.2212
     46  N        -40.7610   71.3930   30.3510 N.am  475  SER475     -0.1936
     47  CA       -41.2290   72.7050   30.8100 C.3   475  SER475      0.2055
     48  C        -41.1670   72.8130   32.3370 C.2   475  SER475      0.2643
     49  O        -42.1960   72.8640   33.0260 O.2   475  SER475     -0.2714
     50  CB       -42.6420   73.0320   30.2870 C.3   475  SER475      0.2130
     51  OG       -42.6850   73.0000   28.8770 O.3   475  SER475     -0.2179
     52  N        -39.9400   72.8290   32.8510 N.am  476  TYR476     -0.1973
     53  CA       -39.7020   73.0170   34.2630 C.3   476  TYR476      0.1639
     54  C        -40.0060   74.4520   34.6220 C.2   476  TYR476      0.2290
     55  O        -40.0250   75.3210   33.7560 O.2   476  TYR476     -0.2864
     56  CB       -38.2500   72.6530   34.6200 C.3   476  TYR476      0.0560
     57  CG       -38.0000   71.1760   34.5200 C.ar  476  TYR476     -0.0198
     58  CD1      -37.5900   70.5960   33.3200 C.ar  476  TYR476     -0.0009
     59  CD2      -38.2230   70.3390   35.6060 C.ar  476  TYR476     -0.0009
     60  CE1      -37.3850   69.2220   33.2170 C.ar  476  TYR476      0.0417
     61  CE2      -38.0110   68.9670   35.5190 C.ar  476  TYR476      0.0417
     62  CZ       -37.5930   68.4090   34.3180 C.ar  476  TYR476      0.1957
     63  OH       -37.3830   67.0390   34.2120 O.3   476  TYR476     -0.2866
     64  N        -35.2990   75.9060   36.9320 N.3   481  ILE481     -0.1245
     65  CA       -34.2610   76.0770   35.9010 C.3   481  ILE481      0.1561
     66  C        -33.2010   77.0580   36.3910 C.2   481  ILE481      0.2260
     67  O        -32.0010   76.7830   36.3070 O.2   481  ILE481     -0.2867
     68  CB       -34.8660   76.5290   34.5530 C.3   481  ILE481      0.0252
     69  CG1      -35.7410   75.4080   33.9780 C.3   481  ILE481      0.0019
     70  CG2      -33.7570   76.9360   33.5570 C.3   481  ILE481      0.0019
     71  CD1      -36.7160   75.8540   32.9190 C.3   481  ILE481      0.0001
     72  N        -26.7270   68.2610   27.1870 N.3   500  ARG500     -0.1245
     73  CA       -27.6310   67.6910   26.1710 C.3   500  ARG500      0.1563
     74  C        -26.8360   67.0090   25.0370 C.2   500  ARG500      0.2260
     75  O        -27.1540   65.8890   24.6000 O.2   500  ARG500     -0.2867
     76  CB       -28.5450   68.7780   25.5940 C.3   500  ARG500      0.0307
     77  CG       -29.5010   68.2690   24.5060 C.3   500  ARG500      0.0489
     78  CD       -30.4700   69.3620   24.0500 C.3   500  ARG500      0.2205
     79  NE       -31.0310   70.0580   25.2030 N.pl3 500  ARG500     -0.0865
     80  CZ       -32.1540   69.7160   25.8280 C.cat 500  ARG500      0.5346
     81  NH1      -32.5390   70.4210   26.8770 N.pl3 500  ARG500      0.1354
     82  NH2      -32.8890   68.6880   25.4120 N.pl3 500  ARG500      0.1354
     83  N        -35.1330   62.3140   26.3640 N.3   527  TRP527     -0.1241
     84  CA       -35.1910   63.7590   26.4090 C.3   527  TRP527      0.1605
     85  C        -34.1490   64.4150   25.4960 C.2   527  TRP527      0.2264
     86  O        -34.2940   65.5820   25.1330 O.2   527  TRP527     -0.2867
     87  CB       -35.0130   64.2620   27.8390 C.3   527  TRP527      0.0550
     88  CG       -33.6960   63.8710   28.4760 C.ar  527  TRP527      0.0003
     89  CD1      -33.4550   62.7660   29.2430 C.ar  527  TRP527      0.0946
     90  CD2      -32.4500   64.5730   28.3790 C.ar  527  TRP527      0.0152
     91  NE1      -32.1290   62.7340   29.6330 N.ar  527  TRP527     -0.2442
     92  CE2      -31.4890   63.8270   29.1130 C.ar  527  TRP527      0.0810
     93  CE3      -32.0440   65.7530   27.7310 C.ar  527  TRP527      0.0012
     94  CZ2      -30.1530   64.2380   29.2410 C.ar  527  TRP527      0.0191
     95  CZ3      -30.7160   66.1560   27.8550 C.ar  527  TRP527      0.0001
     96  CH2      -29.7880   65.3960   28.6040 C.ar  527  TRP527      0.0015
@<TRIPOS>BOND
     1    78    77    1
     2    78    79    1
     3    77    76    1
     4    75    74    2
     5    74    73    1
     6    86    85    2
     7    79    80    2
     8    82    80    1
     9    85    84    1
    10    76    73    1
    11    80    81    1
    12    73    72    1
    13    83    84    1
    14    84    87    1
    15    44    45   ar
    16    44    42   ar
    17    93    95   ar
    18    93    90   ar
    19    87    88    1
    20    95    96   ar
    21    45    43   ar
    22    42    41   ar
    23    90    88   ar
    24    90    92   ar
    25    43    41   ar
    26    41    40    1
    27    88    89   ar
    28    96    94   ar
    29    40    37    1
    30    51    50    1
    31    92    94   ar
    32    92    91   ar
    33    89    91   ar
    34    27    26    1
    35    50    47    1
    36    37    38    1
    37    37    36    1
    38    46    47    1
    39    46    38   am
    40    19    17    1
    41    31    30    2
    42    26    25    1
    43    47    48    1
    44    38    39    2
    45    36    30   am
    46    30    29    1
    47    25    24    1
    48    28    29    1
    49    17    18    1
    50    17    16    2
    51    23    22    2
    52    29    32    1
    53    24    21    1
    54    21    22    1
    55    21    20    1
    56    48    52   am
    57    48    49    2
    58    16    15    1
    59    12    11    2
    60     7     6    1
    61    52    53    1
    62    71    69    1
    63    60    58   ar
    64    60    62   ar
    65    11    20   am
    66    11    10    1
    67    58    57   ar
    68    32    33    1
    69    13    10    1
    70    13    14    1
    71    70    68    1
    72    55    54    2
    73    15    14    1
    74    69    68    1
    75    10     9    1
    76    63    62    1
    77     6     8    1
    78     6     5    1
    79    53    56    1
    80    53    54    1
    81    62    61   ar
    82    35    33    1
    83    57    56    1
    84    57    59   ar
    85    68    65    1
    86     4     3    2
    87    33    34    1
    88     5     2    1
    89     2     3    1
    90     2     1    1
    91    61    59   ar
    92    65    66    1
    93    65    64    1
    94    67    66    2
