@<TRIPOS>MOLECULE
tmp/3cj2B00.pdb
 124 120 0 0 0
SMALL
GASTEIGER

@<TRIPOS>ATOM
      1  N         11.8210   -8.6520   78.6080 N.3   414  LEU414     -0.1245
      2  CA        11.6940   -9.4730   79.7860 C.3   414  LEU414      0.1561
      3  C         11.9660  -10.9610   79.4700 C.2   414  LEU414      0.2260
      4  O         12.6560  -11.6660   80.2270 O.2   414  LEU414     -0.2867
      5  CB        10.2680   -9.3040   80.3420 C.3   414  LEU414      0.0270
      6  CG         9.8440  -10.0300   81.6300 C.3   414  LEU414      0.0019
      7  CD1       10.7080   -9.6340   82.8660 C.3   414  LEU414      0.0001
      8  CD2        8.3830   -9.7840   81.9100 C.3   414  LEU414      0.0001
      9  N         15.6510  -11.8590   78.1890 N.3   417  ARG417     -0.1231
     10  CA        16.5530  -11.6980   79.3300 C.3   417  ARG417      0.1694
     11  C         16.3950  -12.7950   80.3520 C.2   417  ARG417      0.2591
     12  O         17.3450  -13.3870   80.7690 O.2   417  ARG417     -0.2718
     13  CB        16.3670  -10.3410   79.9760 C.3   417  ARG417      0.0321
     14  CG        16.8520   -9.2380   79.0870 C.3   417  ARG417      0.0489
     15  CD        16.4870   -7.9120   79.6840 C.3   417  ARG417      0.2205
     16  NE        17.4440   -7.4780   80.6730 N.pl3 417  ARG417     -0.0865
     17  CZ        17.2300   -6.4860   81.5190 C.cat 417  ARG417      0.5346
     18  NH1       16.0520   -5.8290   81.5290 N.pl3 417  ARG417      0.1354
     19  NH2       18.1750   -6.1790   82.3790 N.pl3 417  ARG417      0.1354
     20  N         15.1650  -13.0600   80.7870 N.am  418  MET418     -0.1979
     21  CA        14.9760  -14.0360   81.8520 C.3   418  MET418      0.1605
     22  C         15.0800  -15.4870   81.3730 C.2   418  MET418      0.2287
     23  O         15.6270  -16.3180   82.0740 O.2   418  MET418     -0.2864
     24  CB        13.6020  -13.7860   82.5410 C.3   418  MET418      0.0413
     25  CG        13.5800  -12.4580   83.3640 C.3   418  MET418      0.0598
     26  SD        12.0910  -12.5160   84.4140 S.3   418  MET418     -0.1393
     27  CE        12.7300  -13.4290   85.8150 C.3   418  MET418      0.0692
     28  N         16.7160   -2.3270   82.1880 N.3   469  LEU469     -0.1231
     29  CA        15.2740   -2.1560   82.1080 C.3   469  LEU469      0.1693
     30  C         14.5660   -2.9320   83.1930 C.2   469  LEU469      0.2592
     31  O         14.9500   -4.0630   83.5450 O.2   469  LEU469     -0.2718
     32  CB        14.7240   -2.5590   80.7350 C.3   469  LEU469      0.0284
     33  CG        15.1770   -1.7350   79.5220 C.3   469  LEU469      0.0019
     34  CD1       14.3550   -2.0850   78.3200 C.3   469  LEU469      0.0001
     35  CD2       15.1200   -0.2260   79.7740 C.3   469  LEU469      0.0001
     36  N         13.4970   -2.3340   83.6900 N.am  470  HIS470     -0.1962
     37  CA        12.7110   -2.8950   84.7600 C.3   470  HIS470      0.1787
     38  C         11.3790   -2.2260   84.6380 C.2   470  HIS470      0.2621
     39  O         11.2080   -1.3320   83.7970 O.2   470  HIS470     -0.2715
     40  CB        13.3620   -2.6260   86.1420 C.3   470  HIS470      0.0785
     41  CG        13.3550   -1.1810   86.5530 C.ar  470  HIS470      0.0821
     42  ND1       12.2970   -0.6030   87.2220 N.ar  470  HIS470     -0.2267
     43  CD2       14.2780   -0.2020   86.3930 C.ar  470  HIS470      0.1154
     44  CE1       12.5640    0.6730   87.4500 C.ar  470  HIS470      0.1986
     45  NE2       13.7650    0.9380   86.9700 N.ar  470  HIS470     -0.2212
     46  N         10.4480   -2.6600   85.4780 N.am  471  SER471     -0.1936
     47  CA         9.0920   -2.1430   85.4940 C.3   471  SER471      0.2055
     48  C          8.5120   -2.1950   84.0990 C.2   471  SER471      0.2643
     49  O          8.2000   -1.1670   83.4890 O.2   471  SER471     -0.2714
     50  CB         9.0590   -0.7310   86.0780 C.3   471  SER471      0.2130
     51  OG         9.4370   -0.7750   87.4340 O.3   471  SER471     -0.2179
     52  N          8.4150   -3.4150   83.5870 N.am  472  TYR472     -0.1973
     53  CA         7.7850   -3.6570   82.3080 C.3   472  TYR472      0.1639
     54  C          6.3010   -3.4810   82.4680 C.2   472  TYR472      0.2290
     55  O          5.7760   -3.5240   83.5870 O.2   472  TYR472     -0.2864
     56  CB         8.0750   -5.0860   81.8480 C.3   472  TYR472      0.0560
     57  CG         9.4960   -5.3020   81.4750 C.ar  472  TYR472     -0.0198
     58  CD1       10.3790   -5.8610   82.3870 C.ar  472  TYR472     -0.0009
     59  CD2        9.9600   -4.9570   80.2120 C.ar  472  TYR472     -0.0009
     60  CE1       11.6830   -6.0480   82.0600 C.ar  472  TYR472      0.0417
     61  CE2       11.2710   -5.1430   79.8580 C.ar  472  TYR472      0.0417
     62  CZ        12.1240   -5.7140   80.7980 C.ar  472  TYR472      0.1957
     63  OH        13.4200   -5.9260   80.4790 O.3   472  TYR472     -0.2866
     64  N          4.0410   -8.1680   80.7090 N.3   477  ILE477     -0.1245
     65  CA         4.0870   -9.2010   81.7570 C.3   477  ILE477      0.1561
     66  C          2.9590  -10.2250   81.6340 C.2   477  ILE477      0.2260
     67  O          3.2030  -11.4270   81.6980 O.2   477  ILE477     -0.2867
     68  CB         4.1040   -8.5530   83.1530 C.3   477  ILE477      0.0252
     69  CG1        5.4060   -7.7440   83.3160 C.3   477  ILE477      0.0019
     70  CG2        3.8590   -9.6140   84.2700 C.3   477  ILE477      0.0019
     71  CD1        5.4240   -6.8030   84.5090 C.3   477  ILE477      0.0001
     72  N          8.2190  -17.2540   85.9290 N.3   492  LEU492     -0.1231
     73  CA         9.3550  -16.3300   85.9180 C.3   492  LEU492      0.1693
     74  C         10.2380  -16.3760   87.1710 C.2   492  LEU492      0.2591
     75  O         11.4430  -16.1610   87.0750 O.2   492  LEU492     -0.2718
     76  CB         8.9030  -14.9060   85.6240 C.3   492  LEU492      0.0284
     77  CG         8.3710  -14.6820   84.1980 C.3   492  LEU492      0.0019
     78  CD1        7.8240  -13.2480   84.1100 C.3   492  LEU492      0.0001
     79  CD2        9.5370  -14.8500   83.1850 C.3   492  LEU492      0.0001
     80  N          9.6480  -16.6800   88.3240 N.am  493  ARG493     -0.1980
     81  CA        10.4180  -16.7390   89.5820 C.3   493  ARG493      0.1597
     82  C         11.5230  -17.8120   89.5200 C.2   493  ARG493      0.2287
     83  O         12.6100  -17.6200   90.0810 O.2   493  ARG493     -0.2864
     84  CB         9.4880  -16.9520   90.7900 C.3   493  ARG493      0.0334
     85  CG         8.5360  -18.1220   90.6310 C.3   493  ARG493      0.0492
     86  CD         7.5850  -18.2660   91.7890 C.3   493  ARG493      0.2205
     87  NE         6.2870  -18.7370   91.3050 N.pl3 493  ARG493     -0.0865
     88  CZ         5.9070  -20.0130   91.2790 C.cat 493  ARG493      0.5346
     89  NH1        6.7210  -20.9730   91.7250 N.pl3 493  ARG493      0.1354
     90  NH2        4.7030  -20.3290   90.8080 N.pl3 493  ARG493      0.1354
     91  N         14.4930  -16.3360   87.4840 N.3   496  ARG496     -0.1245
     92  CA        15.3520  -15.4190   88.2380 C.3   496  ARG496      0.1563
     93  C         16.3430  -16.2210   89.1390 C.2   496  ARG496      0.2260
     94  O         17.5460  -15.9030   89.2230 O.2   496  ARG496     -0.2867
     95  CB        14.4810  -14.4480   89.0370 C.3   496  ARG496      0.0307
     96  CG        15.2380  -13.6400   90.0830 C.3   496  ARG496      0.0489
     97  CD        14.3050  -12.7150   90.9060 C.3   496  ARG496      0.2205
     98  NE        14.3930  -11.3620   90.3680 N.pl3 496  ARG496     -0.0865
     99  CZ        15.2550  -10.4340   90.7830 C.cat 496  ARG496      0.5346
    100  NH1       16.0890  -10.6850   91.7840 N.pl3 496  ARG496      0.1354
    101  NH2       15.2640   -9.2410   90.2040 N.pl3 496  ARG496      0.1354
    102  N         20.2340   -7.8840   86.2780 N.3   523  TRP523     -0.1241
    103  CA        18.8260   -7.8680   86.6750 C.3   523  TRP523      0.1605
    104  C         18.4180   -8.9100   87.7460 C.2   523  TRP523      0.2264
    105  O         17.3800   -8.7610   88.4180 O.2   523  TRP523     -0.2867
    106  CB        17.9670   -8.0590   85.4270 C.3   523  TRP523      0.0550
    107  CG        18.2220   -9.3670   84.7270 C.ar  523  TRP523      0.0003
    108  CD1       19.1070   -9.6060   83.6950 C.ar  523  TRP523      0.0946
    109  CD2       17.6050  -10.6180   85.0210 C.ar  523  TRP523      0.0152
    110  NE1       19.0620  -10.9340   83.3280 N.ar  523  TRP523     -0.2442
    111  CE2       18.1460  -11.5800   84.1200 C.ar  523  TRP523      0.0810
    112  CE3       16.6240  -11.0280   85.9470 C.ar  523  TRP523      0.0012
    113  CZ2       17.7530  -12.9240   84.1340 C.ar  523  TRP523      0.0191
    114  CZ3       16.2320  -12.3730   85.9570 C.ar  523  TRP523      0.0001
    115  CH2       16.8000  -13.3060   85.0510 C.ar  523  TRP523      0.0015
    116  N         23.1140   -4.9440   93.0780 N.3   528  LYS528     -0.1245
    117  CA        23.5390   -4.5500   91.7250 C.3   528  LYS528      0.1561
    118  C         25.0110   -4.1890   91.5580 C.2   528  LYS528      0.2260
    119  O         25.5940   -3.4890   92.3980 O.2   528  LYS528     -0.2867
    120  CB        22.7030   -3.3680   91.2250 C.3   528  LYS528      0.0271
    121  CG        21.7120   -3.7070   90.1350 C.3   528  LYS528      0.0035
    122  CD        20.3490   -4.0900   90.6610 C.3   528  LYS528      0.0206
    123  CE        19.6930   -5.0570   89.6960 C.3   528  LYS528      0.1093
    124  NZ        18.3960   -5.6070   90.1750 N.3   528  LYS528     -0.1314
@<TRIPOS>BOND
     1     9    10    1
     2    34    33    1
     3     1     2    1
     4    14    15    1
     5    14    13    1
     6    10    13    1
     7    10    11    1
     8     3     2    1
     9     3     4    2
    10    33    35    1
    11    33    32    1
    12    15    16    1
    13     2     5    1
    14    61    59   ar
    15    61    62   ar
    16    59    57   ar
    17     5     6    1
    18    11    12    2
    19    11    20   am
    20    63    62    1
    21    16    17    2
    22    64    65    1
    23    32    29    1
    24    20    21    1
    25    62    60   ar
    26    22    21    1
    27    22    23    2
    28    57    56    1
    29    57    58   ar
    30    17    18    1
    31    17    19    1
    32     6     8    1
    33     6     7    1
    34    66    67    2
    35    66    65    1
    36    65    68    1
    37    56    53    1
    38    21    24    1
    39    60    58   ar
    40    29    28    1
    41    29    30    1
    42    53    54    1
    43    53    52    1
    44    54    55    2
    45    24    25    1
    46    68    69    1
    47    68    70    1
    48    79    77    1
    49    30    31    2
    50    30    36   am
    51    69    71    1
    52   110   108   ar
    53   110   111   ar
    54    25    26    1
    55    49    48    2
    56    52    48   am
    57    36    37    1
    58   108   107   ar
    59    39    38    2
    60    48    47    1
    61    78    77    1
    62   111   113   ar
    63   111   109   ar
    64   113   115   ar
    65    77    76    1
    66    26    27    1
    67    38    37    1
    68    38    46   am
    69   107   109   ar
    70   107   106    1
    71    37    40    1
    72   109   112   ar
    73   115   114   ar
    74   106   103    1
    75    46    47    1
    76    47    50    1
    77    76    73    1
    78    73    72    1
    79    73    74    1
    80   112   114   ar
    81    50    51    1
    82    40    41    1
    83   102   103    1
    84    43    41   ar
    85    43    45   ar
    86    41    42   ar
    87   103   104    1
    88    45    44   ar
    89    75    74    2
    90    74    80   am
    91    42    44   ar
    92    91    92    1
    93   104   105    2
    94    92    95    1
    95    92    93    1
    96    80    81    1
    97    95    96    1
    98    93    94    2
    99    82    81    1
   100    82    83    2
   101    81    84    1
   102   123   124    1
   103   123   122    1
   104    96    97    1
   105   121   122    1
   106   121   120    1
   107   101    99    1
   108    98    99    2
   109    98    97    1
   110    85    84    1
   111    85    86    1
   112    99   100    1
   113    90    88    1
   114   120   117    1
   115    88    87    2
   116    88    89    1
   117    87    86    1
   118   118   117    1
   119   118   119    2
   120   117   116    1
