@<TRIPOS>MOLECULE
tmp/3cj3A00.pdb
 124 120 0 0 0
SMALL
GASTEIGER

@<TRIPOS>ATOM
      1  N          8.4890   38.0520   68.7090 N.3   416  LEU416     -0.1245
      2  CA         9.2760   37.5680   69.8310 C.3   416  LEU416      0.1561
      3  C         10.7680   37.9200   69.6630 C.2   416  LEU416      0.2260
      4  O         11.4120   38.3620   70.6090 O.2   416  LEU416     -0.2867
      5  CB         9.0790   36.0530   69.9460 C.3   416  LEU416      0.0270
      6  CG         9.9770   35.1070   70.7320 C.3   416  LEU416      0.0019
      7  CD1        9.4410   34.9970   72.1240 C.3   416  LEU416      0.0001
      8  CD2        9.9470   33.7440   70.0710 C.3   416  LEU416      0.0001
      9  N         11.7210   41.9030   69.6670 N.3   419  ARG419     -0.1231
     10  CA        11.6570   42.3950   71.0440 C.3   419  ARG419      0.1694
     11  C         12.7580   41.8070   71.9130 C.2   419  ARG419      0.2591
     12  O         13.4300   42.5250   72.6160 O.2   419  ARG419     -0.2718
     13  CB        10.2990   42.1050   71.6880 C.3   419  ARG419      0.0321
     14  CG         9.1070   42.6250   70.8990 C.3   419  ARG419      0.0489
     15  CD         7.7790   42.1350   71.4500 C.3   419  ARG419      0.2205
     16  NE         7.4220   42.8150   72.6870 N.pl3 419  ARG419     -0.0865
     17  CZ         6.5000   42.3760   73.5440 C.cat 419  ARG419      0.5346
     18  NH1        5.8430   41.2540   73.2950 N.pl3 419  ARG419      0.1354
     19  NH2        6.2540   43.0540   74.6560 N.pl3 419  ARG419      0.1354
     20  N         12.9540   40.4890   71.8700 N.am  420  MET420     -0.1979
     21  CA        13.8960   39.8750   72.8270 C.3   420  MET420      0.1605
     22  C         15.3630   39.9920   72.4210 C.2   420  MET420      0.2287
     23  O         16.2370   40.0690   73.2890 O.2   420  MET420     -0.2864
     24  CB        13.5390   38.4000   73.0790 C.3   420  MET420      0.0413
     25  CG        12.2080   38.2280   73.7700 C.3   420  MET420      0.0598
     26  SD        11.8870   36.4930   74.2070 S.3   420  MET420     -0.1393
     27  CE        12.7400   36.4430   75.7730 C.3   420  MET420      0.0692
     28  N          2.2010   41.8010   73.9070 N.3   471  LEU471     -0.1231
     29  CA         2.0000   40.4480   73.3740 C.3   471  LEU471      0.1693
     30  C          2.7720   39.4130   74.1580 C.2   471  LEU471      0.2592
     31  O          3.8780   39.6840   74.6550 O.2   471  LEU471     -0.2718
     32  CB         2.3390   40.3400   71.8700 C.3   471  LEU471      0.0284
     33  CG         1.5250   41.1790   70.8700 C.3   471  LEU471      0.0019
     34  CD1        1.9570   40.8430   69.4630 C.3   471  LEU471      0.0001
     35  CD2        0.0390   40.9330   71.0510 C.3   471  LEU471      0.0001
     36  N          2.1760   38.2260   74.2540 N.am  472  HIS472     -0.1962
     37  CA         2.7140   37.1300   75.0510 C.3   472  HIS472      0.1787
     38  C          2.1610   35.8150   74.5140 C.2   472  HIS472      0.2621
     39  O          1.2800   35.8050   73.6500 O.2   472  HIS472     -0.2715
     40  CB         2.3900   37.3130   76.5560 C.3   472  HIS472      0.0785
     41  CG         0.9350   37.1400   76.8970 C.ar  472  HIS472      0.0821
     42  ND1        0.3630   35.9050   77.1160 N.ar  472  HIS472     -0.2267
     43  CD2       -0.0590   38.0480   77.0500 C.ar  472  HIS472      0.1154
     44  CE1       -0.9200   36.0590   77.3950 C.ar  472  HIS472      0.1986
     45  NE2       -1.2020   37.3490   77.3560 N.ar  472  HIS472     -0.2212
     46  N          2.6800   34.7120   75.0330 N.am  473  SER473     -0.1936
     47  CA         2.2700   33.3800   74.6300 C.3   473  SER473      0.2055
     48  C          2.2330   33.2500   73.1000 C.2   473  SER473      0.2643
     49  O          1.1830   33.0030   72.4960 O.2   473  SER473     -0.2714
     50  CB         0.9260   32.9970   75.2730 C.3   473  SER473      0.2130
     51  OG         0.8830   33.3970   76.6290 O.3   473  SER473     -0.2179
     52  N          3.4010   33.4380   72.4900 N.am  474  TYR474     -0.1973
     53  CA         3.6050   33.2190   71.0710 C.3   474  TYR474      0.1639
     54  C          3.4090   31.7330   70.7290 C.2   474  TYR474      0.2290
     55  O          3.4450   30.8920   71.6170 O.2   474  TYR474     -0.2864
     56  CB         5.0060   33.7080   70.6760 C.3   474  TYR474      0.0560
     57  CG         5.1700   35.2180   70.7490 C.ar  474  TYR474     -0.0198
     58  CD1        5.4460   35.8560   71.9640 C.ar  474  TYR474     -0.0009
     59  CD2        5.0590   36.0170   69.5910 C.ar  474  TYR474     -0.0009
     60  CE1        5.6060   37.2610   72.0350 C.ar  474  TYR474      0.0417
     61  CE2        5.2190   37.4130   69.6490 C.ar  474  TYR474      0.0417
     62  CZ         5.5020   38.0290   70.8710 C.ar  474  TYR474      0.1957
     63  OH         5.6590   39.4020   70.9250 O.3   474  TYR474     -0.2866
     64  N          7.9530   29.9690   68.0600 N.3   479  ILE479     -0.1245
     65  CA         9.0210   29.7130   69.0400 C.3   479  ILE479      0.1561
     66  C         10.0260   28.6860   68.4670 C.2   479  ILE479      0.2260
     67  O         11.2410   28.8980   68.5370 O.2   479  ILE479     -0.2867
     68  CB         8.4390   29.2820   70.4260 C.3   479  ILE479      0.0252
     69  CG1        7.4380   30.3360   70.9270 C.3   479  ILE479      0.0019
     70  CG2        9.5710   29.0120   71.4630 C.3   479  ILE479      0.0019
     71  CD1        6.5260   29.8750   72.0650 C.3   479  ILE479      0.0001
     72  N         16.8840   32.3710   74.3270 N.3   494  LEU494     -0.1231
     73  CA        15.9570   33.3850   74.8260 C.3   494  LEU494      0.1693
     74  C         16.0560   33.7510   76.3300 C.2   494  LEU494      0.2591
     75  O         15.8740   34.9170   76.6960 O.2   494  LEU494     -0.2718
     76  CB        14.5240   32.9940   74.4330 C.3   494  LEU494      0.0284
     77  CG        14.3130   32.8550   72.9230 C.3   494  LEU494      0.0019
     78  CD1       12.8530   32.4410   72.6180 C.3   494  LEU494      0.0001
     79  CD2       14.7010   34.1350   72.1640 C.3   494  LEU494      0.0001
     80  N         16.3460   32.7760   77.1920 N.am  495  ARG495     -0.1980
     81  CA        16.5190   33.0650   78.6240 C.3   495  ARG495      0.1597
     82  C         17.6590   34.0500   78.9180 C.2   495  ARG495      0.2287
     83  O         17.5310   34.9140   79.8000 O.2   495  ARG495     -0.2864
     84  CB        16.6950   31.7750   79.4470 C.3   495  ARG495      0.0334
     85  CG        17.7500   30.8080   78.9230 C.3   495  ARG495      0.0492
     86  CD        18.1230   29.7470   79.9520 C.3   495  ARG495      0.2205
     87  NE        19.1430   28.8340   79.4250 N.pl3 495  ARG495     -0.0865
     88  CZ        20.4520   28.9480   79.6500 C.cat 495  ARG495      0.5346
     89  NH1       20.9280   29.9340   80.4110 N.pl3 495  ARG495      0.1354
     90  NH2       21.2930   28.0710   79.1140 N.pl3 495  ARG495      0.1354
     91  N         16.3480   37.4810   78.0060 N.3   498  ARG498     -0.1245
     92  CA        15.4380   38.0030   79.0250 C.3   498  ARG498      0.1563
     93  C         16.2380   38.6730   80.1510 C.2   498  ARG498      0.2260
     94  O         15.9310   39.7980   80.5680 O.2   498  ARG498     -0.2867
     95  CB        14.5310   36.9180   79.5990 C.3   498  ARG498      0.0307
     96  CG        13.4340   37.4920   80.5080 C.3   498  ARG498      0.0489
     97  CD        12.7820   36.4230   81.3900 C.3   498  ARG498      0.2205
     98  NE        11.3510   36.6750   81.5930 N.pl3 498  ARG498     -0.0865
     99  CZ        10.4310   35.7370   81.8460 C.cat 498  ARG498      0.5346
    100  NH1        9.1620   36.0880   82.0090 N.pl3 498  ARG498      0.1354
    101  NH2       10.7610   34.4500   81.9330 N.pl3 498  ARG498      0.1354
    102  N          8.0720   43.6270   78.8060 N.3   525  TRP525     -0.1241
    103  CA         7.9430   42.1590   78.7390 C.3   525  TRP525      0.1605
    104  C          8.9580   41.4120   79.5970 C.2   525  TRP525      0.2264
    105  O          8.7800   40.2220   79.8500 O.2   525  TRP525     -0.2867
    106  CB         8.1200   41.6650   77.3100 C.3   525  TRP525      0.0550
    107  CG         9.4830   42.0490   76.6910 C.ar  525  TRP525      0.0003
    108  CD1        9.7560   43.1760   75.9770 C.ar  525  TRP525      0.0946
    109  CD2       10.7170   41.3110   76.7620 C.ar  525  TRP525      0.0152
    110  NE1       11.0780   43.1870   75.5820 N.ar  525  TRP525     -0.2442
    111  CE2       11.6900   42.0600   76.0620 C.ar  525  TRP525      0.0810
    112  CE3       11.0970   40.0890   77.3600 C.ar  525  TRP525      0.0012
    113  CZ2       13.0100   41.6330   75.9290 C.ar  525  TRP525      0.0191
    114  CZ3       12.4030   39.6630   77.2220 C.ar  525  TRP525      0.0001
    115  CH2       13.3520   40.4370   76.5040 C.ar  525  TRP525      0.0015
    116  N          4.9030   44.1480   85.9530 N.3   530  LYS530     -0.1245
    117  CA         4.7100   44.9400   84.7480 C.3   530  LYS530      0.1561
    118  C          4.1010   46.3140   84.9860 C.2   530  LYS530      0.2260
    119  O          3.1270   46.4520   85.7300 O.2   530  LYS530     -0.2867
    120  CB         3.9040   44.1410   83.7290 C.3   530  LYS530      0.0271
    121  CG         4.8000   43.3390   82.8120 C.3   530  LYS530      0.0035
    122  CD         4.3530   41.9110   82.6620 C.3   530  LYS530      0.0206
    123  CE         5.4280   41.1110   81.9380 C.3   530  LYS530      0.1093
    124  NZ         5.2590   39.6430   82.1200 N.3   530  LYS530     -0.1314
@<TRIPOS>BOND
     1    64    65    1
     2    66    67    2
     3    66    65    1
     4     1     2    1
     5    65    68    1
     6    34    33    1
     7    59    61   ar
     8    59    57   ar
     9    61    62   ar
    10     3     2    1
    11     3     4    2
    12     9    10    1
    13     2     5    1
    14     5     6    1
    15     8     6    1
    16    68    69    1
    17    68    70    1
    18    56    57    1
    19    56    53    1
    20    54    53    1
    21    54    55    2
    22     6     7    1
    23    57    58   ar
    24    33    35    1
    25    33    32    1
    26    62    63    1
    27    62    60   ar
    28    14    15    1
    29    14    13    1
    30    69    71    1
    31    10    13    1
    32    10    11    1
    33    53    52    1
    34    15    16    1
    35    32    29    1
    36    20    11   am
    37    20    21    1
    38    11    12    2
    39    58    60   ar
    40    79    77    1
    41    22    21    1
    42    22    23    2
    43    52    48   am
    44    49    48    2
    45    78    77    1
    46    16    17    2
    47    21    24    1
    48    77    76    1
    49    24    25    1
    50    48    47    1
    51    18    17    1
    52    29    28    1
    53    29    30    1
    54    17    19    1
    55    39    38    2
    56    25    26    1
    57    30    36   am
    58    30    31    2
    59    26    27    1
    60    36    37    1
    61    72    73    1
    62    76    73    1
    63    38    46   am
    64    38    37    1
    65    47    46    1
    66    47    50    1
    67    73    74    1
    68    37    40    1
    69    50    51    1
    70   110   108   ar
    71   110   111   ar
    72   113   111   ar
    73   113   115   ar
    74   108   107   ar
    75   111   109   ar
    76    74    75    2
    77    74    80   am
    78   115   114   ar
    79    40    41    1
    80   107   109   ar
    81   107   106    1
    82   109   112   ar
    83    41    43   ar
    84    41    42   ar
    85    43    45   ar
    86    42    44   ar
    87    80    81    1
    88   114   112   ar
    89   106   103    1
    90    45    44   ar
    91    91    92    1
    92    81    82    1
    93    81    84    1
    94   103   102    1
    95   103   104    1
    96    82    83    2
    97    85    84    1
    98    85    86    1
    99    92    95    1
   100    92    93    1
   101    90    88    1
   102    87    88    2
   103    87    86    1
   104   104   105    2
   105    95    96    1
   106    88    89    1
   107    93    94    2
   108    96    97    1
   109    97    98    1
   110    98    99    2
   111    99   101    1
   112    99   100    1
   113   123   124    1
   114   123   122    1
   115   122   121    1
   116   121   120    1
   117   120   117    1
   118   117   118    1
   119   117   116    1
   120   118   119    2
