@<TRIPOS>MOLECULE
tmp/3cj4B00.pdb
 124 120 0 0 0
SMALL
GASTEIGER

@<TRIPOS>ATOM
      1  N         17.8590   -8.5780   77.5060 N.3   415  LEU415     -0.1245
      2  CA        17.8380   -9.3530   78.7370 C.3   415  LEU415      0.1561
      3  C         18.0000  -10.8620   78.4650 C.2   415  LEU415      0.2260
      4  O         18.5750  -11.5810   79.2870 O.2   415  LEU415     -0.2867
      5  CB        16.5330   -9.0700   79.5130 C.3   415  LEU415      0.0270
      6  CG        16.2250   -9.8800   80.7800 C.3   415  LEU415      0.0019
      7  CD1       17.2040   -9.5490   81.8960 C.3   415  LEU415      0.0001
      8  CD2       14.7960   -9.6780   81.2330 C.3   415  LEU415      0.0001
      9  N         21.8870  -11.8540   76.7960 N.3   418  ARG418     -0.1231
     10  CA        22.9360  -11.7010   77.7920 C.3   418  ARG418      0.1694
     11  C         22.8580  -12.7690   78.8540 C.2   418  ARG418      0.2591
     12  O         23.8960  -13.2950   79.2720 O.2   418  ARG418     -0.2718
     13  CB        22.8350  -10.3350   78.4740 C.3   418  ARG418      0.0321
     14  CG        23.1390   -9.1750   77.5640 C.3   418  ARG418      0.0489
     15  CD        22.8060   -7.8530   78.2250 C.3   418  ARG418      0.2205
     16  NE        23.8550   -7.4230   79.1340 N.pl3 418  ARG418     -0.0865
     17  CZ        23.7480   -6.3900   79.9610 C.cat 418  ARG418      0.5346
     18  NH1       22.6300   -5.6860   80.0010 N.pl3 418  ARG418      0.1354
     19  NH2       24.7590   -6.0760   80.7580 N.pl3 418  ARG418      0.1354
     20  N         21.6350  -13.0620   79.3050 N.am  419  MET419     -0.1979
     21  CA        21.4070  -13.9880   80.4150 C.3   419  MET419      0.1605
     22  C         21.3710  -15.4560   80.0050 C.2   419  MET419      0.2287
     23  O         21.7510  -16.3330   80.7840 O.2   419  MET419     -0.2864
     24  CB        20.1140  -13.6450   81.1540 C.3   419  MET419      0.0413
     25  CG        20.1710  -12.3460   81.9710 C.3   419  MET419      0.0598
     26  SD        18.8540  -12.2050   83.1990 S.3   419  MET419     -0.1393
     27  CE        19.4150  -13.3550   84.4480 C.3   419  MET419      0.0692
     28  N         23.3930   -2.2440   80.5940 N.3   470  LEU470     -0.1231
     29  CA        21.9300   -2.0680   80.6560 C.3   470  LEU470      0.1693
     30  C         21.2480   -2.8230   81.7870 C.2   470  LEU470      0.2592
     31  O         21.6320   -3.9510   82.1200 O.2   470  LEU470     -0.2718
     32  CB        21.2460   -2.4210   79.3230 C.3   470  LEU470      0.0284
     33  CG        21.5140   -1.5840   78.0710 C.3   470  LEU470      0.0019
     34  CD1       20.5280   -1.9760   76.9630 C.3   470  LEU470      0.0001
     35  CD2       21.4520   -0.0930   78.3580 C.3   470  LEU470      0.0001
     36  N         20.2210   -2.1840   82.3530 N.am  471  HIS471     -0.1962
     37  CA        19.4320   -2.7240   83.4610 C.3   471  HIS471      0.1787
     38  C         18.0460   -2.0680   83.5020 C.2   471  HIS471      0.2621
     39  O         17.7740   -1.1330   82.7420 O.2   471  HIS471     -0.2715
     40  CB        20.1720   -2.5560   84.8060 C.3   471  HIS471      0.0785
     41  CG        20.2390   -1.1420   85.3030 C.ar  471  HIS471      0.0821
     42  ND1       19.3080   -0.6140   86.1740 N.ar  471  HIS471     -0.2267
     43  CD2       21.1330   -0.1540   85.0670 C.ar  471  HIS471      0.1154
     44  CE1       19.6190    0.6420   86.4390 C.ar  471  HIS471      0.1986
     45  NE2       20.7220    0.9470   85.7800 N.ar  471  HIS471     -0.2212
     46  N         17.1830   -2.5630   84.3910 N.am  472  SER472     -0.1936
     47  CA        15.8180   -2.0520   84.5610 C.3   472  SER472      0.2055
     48  C         15.0350   -2.1150   83.2560 C.2   472  SER472      0.2643
     49  O         14.4680   -1.1220   82.7880 O.2   472  SER472     -0.2714
     50  CB        15.8040   -0.6430   85.1680 C.3   472  SER472      0.2130
     51  OG        16.2190   -0.6790   86.5190 O.3   472  SER472     -0.2179
     52  N         15.0300   -3.3150   82.6860 N.am  473  TYR473     -0.1973
     53  CA        14.2560   -3.6460   81.5150 C.3   473  TYR473      0.1639
     54  C         12.7780   -3.4270   81.8030 C.2   473  TYR473      0.2290
     55  O         12.3240   -3.5900   82.9380 O.2   473  TYR473     -0.2864
     56  CB        14.5480   -5.0950   81.0910 C.3   473  TYR473      0.0560
     57  CG        15.9740   -5.2890   80.5850 C.ar  473  TYR473     -0.0198
     58  CD1       16.9830   -5.7670   81.4270 C.ar  473  TYR473     -0.0009
     59  CD2       16.3140   -4.9810   79.2650 C.ar  473  TYR473     -0.0009
     60  CE1       18.2980   -5.9360   80.9600 C.ar  473  TYR473      0.0417
     61  CE2       17.6130   -5.1450   78.7890 C.ar  473  TYR473      0.0417
     62  CZ        18.6010   -5.6210   79.6350 C.ar  473  TYR473      0.1957
     63  OH        19.8930   -5.7740   79.1480 O.3   473  TYR473     -0.2866
     64  N         10.4060   -7.9040   80.1710 N.3   478  ILE478     -0.1245
     65  CA        10.5610   -8.9350   81.2090 C.3   478  ILE478      0.1561
     66  C          9.4370   -9.9820   81.1500 C.2   478  ILE478      0.2260
     67  O          9.7130  -11.1850   81.1480 O.2   478  ILE478     -0.2867
     68  CB        10.7100   -8.3080   82.6300 C.3   478  ILE478      0.0252
     69  CG1       11.9990   -7.4880   82.7020 C.3   478  ILE478      0.0019
     70  CG2       10.7000   -9.3860   83.7340 C.3   478  ILE478      0.0019
     71  CD1       12.1290   -6.6260   83.9440 C.3   478  ILE478      0.0001
     72  N         14.9620  -16.8630   84.8380 N.3   493  LEU493     -0.1231
     73  CA        16.1580  -16.0150   84.7700 C.3   493  LEU493      0.1693
     74  C         17.0440  -16.0790   86.0230 C.2   493  LEU493      0.2591
     75  O         18.2340  -15.7510   85.9680 O.2   493  LEU493     -0.2718
     76  CB        15.7920  -14.5620   84.4430 C.3   493  LEU493      0.0284
     77  CG        15.0260  -14.2700   83.1440 C.3   493  LEU493      0.0019
     78  CD1       14.7500  -12.7710   83.0050 C.3   493  LEU493      0.0001
     79  CD2       15.7440  -14.8070   81.9150 C.3   493  LEU493      0.0001
     80  N         16.4650  -16.5020   87.1460 N.am  494  ARG494     -0.1980
     81  CA        17.1920  -16.5660   88.4200 C.3   494  ARG494      0.1597
     82  C         18.2680  -17.6550   88.3830 C.2   494  ARG494      0.2287
     83  O         19.3520  -17.4790   88.9400 O.2   494  ARG494     -0.2864
     84  CB        16.2230  -16.7990   89.5810 C.3   494  ARG494      0.0334
     85  CG        15.9890  -18.2710   89.9340 C.3   494  ARG494      0.0492
     86  CD        14.9890  -18.4190   91.0590 C.3   494  ARG494      0.2205
     87  NE        13.6190  -18.4010   90.5540 N.pl3 494  ARG494     -0.0865
     88  CZ        12.8480  -19.4780   90.4290 C.cat 494  ARG494      0.5346
     89  NH1       13.3080  -20.6780   90.7740 N.pl3 494  ARG494      0.1354
     90  NH2       11.6120  -19.3550   89.9570 N.pl3 494  ARG494      0.1354
     91  N         21.2320  -16.2190   86.1150 N.3   497  ARG497     -0.1245
     92  CA        22.1060  -15.3060   86.8530 C.3   497  ARG497      0.1563
     93  C         23.1200  -16.1110   87.6910 C.2   497  ARG497      0.2260
     94  O         24.3270  -15.8190   87.6980 O.2   497  ARG497     -0.2867
     95  CB        21.2680  -14.3760   87.7350 C.3   497  ARG497      0.0307
     96  CG        22.0720  -13.2890   88.4270 C.3   497  ARG497      0.0489
     97  CD        21.2590  -12.6490   89.5430 C.3   497  ARG497      0.2205
     98  NE        22.0270  -11.6360   90.2690 N.pl3 497  ARG497     -0.0865
     99  CZ        22.2560  -10.3930   89.8400 C.cat 497  ARG497      0.5346
    100  NH1       21.7880   -9.9730   88.6660 N.pl3 497  ARG497      0.1354
    101  NH2       22.9680   -9.5600   90.5910 N.pl3 497  ARG497      0.1354
    102  N         27.0140   -7.9390   84.5340 N.3   524  TRP524     -0.1241
    103  CA        25.6350   -7.8610   85.0210 C.3   524  TRP524      0.1605
    104  C         25.3170   -8.9310   86.0610 C.2   524  TRP524      0.2264
    105  O         24.3120   -8.8370   86.7860 O.2   524  TRP524     -0.2867
    106  CB        24.6620   -8.0420   83.8450 C.3   524  TRP524      0.0550
    107  CG        24.7980   -9.3870   83.1430 C.ar  524  TRP524      0.0003
    108  CD1       25.5770   -9.6650   82.0510 C.ar  524  TRP524      0.0946
    109  CD2       24.1490  -10.6200   83.4930 C.ar  524  TRP524      0.0152
    110  NE1       25.4500  -10.9860   81.6980 N.ar  524  TRP524     -0.2442
    111  CE2       24.5790  -11.5950   82.5640 C.ar  524  TRP524      0.0810
    112  CE3       23.2450  -10.9950   84.4960 C.ar  524  TRP524      0.0012
    113  CZ2       24.1520  -12.9180   82.6190 C.ar  524  TRP524      0.0191
    114  CZ3       22.8130  -12.3220   84.5460 C.ar  524  TRP524      0.0001
    115  CH2       23.2680  -13.2650   83.6100 C.ar  524  TRP524      0.0015
    116  N         30.2220   -4.9050   91.0970 N.3   529  LYS529     -0.1245
    117  CA        30.5390   -4.6510   89.6820 C.3   529  LYS529      0.1561
    118  C         31.9850   -4.2090   89.4010 C.2   529  LYS529      0.2260
    119  O         32.5500   -3.4090   90.1460 O.2   529  LYS529     -0.2867
    120  CB        29.5460   -3.6340   89.0950 C.3   529  LYS529      0.0271
    121  CG        28.4210   -4.2420   88.2710 C.3   529  LYS529      0.0035
    122  CD        27.1180   -4.3870   89.0270 C.3   529  LYS529      0.0206
    123  CE        26.0600   -5.0630   88.1370 C.3   529  LYS529      0.1093
    124  NZ        24.8940   -5.5980   88.8950 N.3   529  LYS529     -0.1314
@<TRIPOS>BOND
     1     9    10    1
     2    34    33    1
     3     1     2    1
     4    14    15    1
     5    14    13    1
     6    10    13    1
     7    10    11    1
     8    33    35    1
     9    33    32    1
    10    15    16    1
    11     3     2    1
    12     3     4    2
    13     2     5    1
    14    61    59   ar
    15    61    62   ar
    16    11    12    2
    17    11    20   am
    18    16    17    2
    19    63    62    1
    20    59    57   ar
    21    20    21    1
    22    32    29    1
    23     5     6    1
    24    62    60   ar
    25    17    18    1
    26    17    19    1
    27    22    21    1
    28    22    23    2
    29    64    65    1
    30    21    24    1
    31    57    56    1
    32    57    58   ar
    33    28    29    1
    34    29    30    1
    35     6     8    1
    36     6     7    1
    37    60    58   ar
    38    56    53    1
    39    67    66    2
    40    66    65    1
    41    24    25    1
    42    65    68    1
    43    53    54    1
    44    53    52    1
    45   110   108   ar
    46   110   111   ar
    47    30    31    2
    48    30    36   am
    49    54    55    2
    50    79    77    1
    51    25    26    1
    52   108   107   ar
    53    36    37    1
    54   111   113   ar
    55   111   109   ar
    56   113   115   ar
    57    68    69    1
    58    68    70    1
    59    52    48   am
    60    69    71    1
    61    39    38    2
    62    49    48    2
    63    78    77    1
    64   107   109   ar
    65   107   106    1
    66    77    76    1
    67    26    27    1
    68    48    47    1
    69    37    38    1
    70    37    40    1
    71   109   112   ar
    72    38    46   am
    73   115   114   ar
    74   106   103    1
    75    46    47    1
    76    76    73    1
    77   112   114   ar
    78   102   103    1
    79    47    50    1
    80    73    72    1
    81    73    74    1
    82    40    41    1
    83   103   104    1
    84    43    41   ar
    85    43    45   ar
    86    50    51    1
    87    41    42   ar
    88    45    44   ar
    89    75    74    2
    90    74    80   am
    91   104   105    2
    92    91    92    1
    93    42    44   ar
    94    92    93    1
    95    92    95    1
    96    80    81    1
    97    93    94    2
    98    95    96    1
    99   123   124    1
   100   123   122    1
   101   121   122    1
   102   121   120    1
   103    82    81    1
   104    82    83    2
   105    81    84    1
   106    96    97    1
   107   100    99    1
   108   120   117    1
   109   118   117    1
   110   118   119    2
   111    97    98    1
   112    84    85    1
   113   117   116    1
   114    99    98    2
   115    99   101    1
   116    85    86    1
   117    90    88    1
   118    88    87    2
   119    88    89    1
   120    87    86    1
