@<TRIPOS>MOLECULE
tmp/3cj5A00.pdb
 124 120 0 0 0
SMALL
GASTEIGER

@<TRIPOS>ATOM
      1  N          8.5100   38.1280   68.8720 N.3   418  LEU418     -0.1245
      2  CA         9.2790   37.6080   69.9940 C.3   418  LEU418      0.1561
      3  C         10.7790   37.9210   69.8620 C.2   418  LEU418      0.2260
      4  O         11.4290   38.2990   70.8440 O.2   418  LEU418     -0.2867
      5  CB         9.0510   36.1050   70.1130 C.3   418  LEU418      0.0270
      6  CG         9.8480   35.3220   71.1630 C.3   418  LEU418      0.0019
      7  CD1        9.3740   35.6510   72.5610 C.3   418  LEU418      0.0001
      8  CD2        9.7230   33.8440   70.8890 C.3   418  LEU418      0.0001
      9  N         11.8640   41.8630   69.8550 N.3   421  ARG421     -0.1231
     10  CA        11.7430   42.4400   71.1990 C.3   421  ARG421      0.1694
     11  C         12.8330   41.9340   72.1320 C.2   421  ARG421      0.2591
     12  O         13.4810   42.7090   72.8200 O.2   421  ARG421     -0.2718
     13  CB        10.3620   42.1790   71.8090 C.3   421  ARG421      0.0321
     14  CG         9.2220   42.8420   71.0790 C.3   421  ARG421      0.0489
     15  CD         7.8780   42.3330   71.5860 C.3   421  ARG421      0.2205
     16  NE         7.4750   42.9610   72.8470 N.pl3 421  ARG421     -0.0865
     17  CZ         6.5060   42.5080   73.6400 C.cat 421  ARG421      0.5346
     18  NH1        5.8370   41.4060   73.3210 N.pl3 421  ARG421      0.1354
     19  NH2        6.2090   43.1560   74.7580 N.pl3 421  ARG421      0.1354
     20  N         13.0310   40.6210   72.1440 N.am  422  MET422     -0.1979
     21  CA        13.9850   39.9970   73.0580 C.3   422  MET422      0.1605
     22  C         15.4450   40.1370   72.6360 C.2   422  MET422      0.2287
     23  O         16.3220   40.2620   73.4860 O.2   422  MET422     -0.2864
     24  CB        13.6500   38.5150   73.2490 C.3   422  MET422      0.0413
     25  CG        12.3470   38.2690   74.0070 C.3   422  MET422      0.0598
     26  SD        12.3190   36.5390   74.5810 S.3   422  MET422     -0.1393
     27  CE        13.1770   36.7050   76.1330 C.3   422  MET422      0.0692
     28  N          2.3230   41.9450   73.9820 N.3   473  LEU473     -0.1231
     29  CA         2.1370   40.6130   73.4110 C.3   473  LEU473      0.1693
     30  C          2.8750   39.5320   74.2020 C.2   473  LEU473      0.2592
     31  O          4.0340   39.7090   74.5790 O.2   473  LEU473     -0.2718
     32  CB         2.5650   40.5930   71.9390 C.3   473  LEU473      0.0284
     33  CG         1.6790   41.3390   70.9410 C.3   473  LEU473      0.0019
     34  CD1        2.0420   40.9040   69.5440 C.3   473  LEU473      0.0001
     35  CD2        0.1990   41.0930   71.1960 C.3   473  LEU473      0.0001
     36  N          2.1890   38.4210   74.4670 N.am  474  HIS474     -0.1962
     37  CA         2.7940   37.3070   75.1860 C.3   474  HIS474      0.1787
     38  C          2.2440   35.9970   74.6460 C.2   474  HIS474      0.2621
     39  O          1.3520   35.9860   73.7790 O.2   474  HIS474     -0.2715
     40  CB         2.5500   37.4180   76.7090 C.3   474  HIS474      0.0785
     41  CG         1.0980   37.3720   77.0930 C.ar  474  HIS474      0.0821
     42  ND1        0.4110   36.1890   77.2780 N.ar  474  HIS474     -0.2267
     43  CD2        0.2020   38.3640   77.3110 C.ar  474  HIS474      0.1154
     44  CE1       -0.8450   36.4570   77.5920 C.ar  474  HIS474      0.1986
     45  NE2       -0.9970   37.7690   77.6190 N.ar  474  HIS474     -0.2212
     46  N          2.7710   34.8920   75.1690 N.am  475  SER475     -0.1936
     47  CA         2.3050   33.5640   74.8050 C.3   475  SER475      0.2055
     48  C          2.2530   33.4440   73.2800 C.2   475  SER475      0.2643
     49  O          1.1920   33.2660   72.6770 O.2   475  SER475     -0.2714
     50  CB         0.9610   33.2410   75.4830 C.3   475  SER475      0.2130
     51  OG         1.0160   33.4890   76.8890 O.3   475  SER475     -0.2179
     52  N          3.4300   33.5700   72.6780 N.am  476  TYR476     -0.1973
     53  CA         3.6410   33.3220   71.2570 C.3   476  TYR476      0.1639
     54  C          3.3820   31.8470   70.9300 C.2   476  TYR476      0.2290
     55  O          3.3390   31.0180   71.8410 O.2   476  TYR476     -0.2864
     56  CB         5.0710   33.7440   70.8660 C.3   476  TYR476      0.0560
     57  CG         5.3090   35.2480   70.9820 C.ar  476  TYR476     -0.0198
     58  CD1        5.8450   35.8150   72.1460 C.ar  476  TYR476     -0.0009
     59  CD2        5.0030   36.0960   69.9250 C.ar  476  TYR476     -0.0009
     60  CE1        6.0500   37.2080   72.2530 C.ar  476  TYR476      0.0417
     61  CE2        5.2090   37.4700   70.0120 C.ar  476  TYR476      0.0417
     62  CZ         5.7410   38.0210   71.1700 C.ar  476  TYR476      0.1957
     63  OH         5.9280   39.3850   71.2170 O.3   476  TYR476     -0.2866
     64  N          7.8690   30.0470   68.4060 N.3   481  ILE481     -0.1245
     65  CA         8.9100   29.8510   69.4220 C.3   481  ILE481      0.1561
     66  C          9.9700   28.8600   68.9070 C.2   481  ILE481      0.2260
     67  O         11.1770   29.1020   69.0280 O.2   481  ILE481     -0.2867
     68  CB         8.3080   29.3950   70.7840 C.3   481  ILE481      0.0252
     69  CG1        7.3410   30.4580   71.3130 C.3   481  ILE481      0.0019
     70  CG2        9.4200   29.0830   71.8160 C.3   481  ILE481      0.0019
     71  CD1        6.6130   30.0910   72.5980 C.3   481  ILE481      0.0001
     72  N         16.9290   32.2710   74.6360 N.3   496  LEU496     -0.1231
     73  CA        16.0320   33.3600   75.0350 C.3   496  LEU496      0.1693
     74  C         16.1230   33.7690   76.5140 C.2   496  LEU496      0.2591
     75  O         16.0030   34.9570   76.8460 O.2   496  LEU496     -0.2718
     76  CB        14.5850   33.0220   74.6420 C.3   496  LEU496      0.0284
     77  CG        14.3010   32.8840   73.1470 C.3   496  LEU496      0.0019
     78  CD1       12.8490   32.4340   72.9520 C.3   496  LEU496      0.0001
     79  CD2       14.5930   34.1960   72.4060 C.3   496  LEU496      0.0001
     80  N         16.3410   32.7940   77.3940 N.am  497  ARG497     -0.1980
     81  CA        16.4470   33.0600   78.8310 C.3   497  ARG497      0.1597
     82  C         17.5750   34.0370   79.1490 C.2   497  ARG497      0.2287
     83  O         17.4430   34.8440   80.0670 O.2   497  ARG497     -0.2864
     84  CB        16.6060   31.7560   79.6420 C.3   497  ARG497      0.0334
     85  CG        17.6810   30.8290   79.1170 C.3   497  ARG497      0.0492
     86  CD        17.8930   29.5950   79.9890 C.3   497  ARG497      0.2205
     87  NE        19.0650   28.8480   79.5220 N.pl3 497  ARG497     -0.0865
     88  CZ        20.3010   28.9770   80.0100 C.cat 497  ARG497      0.5346
     89  NH1       20.5560   29.8180   81.0120 N.pl3 497  ARG497      0.1354
     90  NH2       21.2910   28.2570   79.4960 N.pl3 497  ARG497      0.1354
     91  N         16.2850   37.5420   78.2010 N.3   500  ARG500     -0.1245
     92  CA        15.3560   38.0770   79.1950 C.3   500  ARG500      0.1563
     93  C         16.1570   38.7530   80.3190 C.2   500  ARG500      0.2260
     94  O         15.8630   39.8910   80.7110 O.2   500  ARG500     -0.2867
     95  CB        14.4210   36.9920   79.7440 C.3   500  ARG500      0.0307
     96  CG        13.7790   37.3560   81.0820 C.3   500  ARG500      0.0489
     97  CD        12.6740   36.3990   81.4970 C.3   500  ARG500      0.2205
     98  NE        11.4270   36.8290   80.8850 N.pl3 500  ARG500     -0.0865
     99  CZ        10.5570   37.6680   81.4380 C.cat 500  ARG500      0.5346
    100  NH1       10.7640   38.1650   82.6540 N.pl3 500  ARG500      0.1354
    101  NH2        9.4660   38.0040   80.7640 N.pl3 500  ARG500      0.1354
    102  N          7.9330   43.7390   79.0380 N.3   527  TRP527     -0.1241
    103  CA         7.8920   42.2790   78.9460 C.3   527  TRP527      0.1605
    104  C          8.9490   41.5790   79.8000 C.2   527  TRP527      0.2264
    105  O          8.7930   40.4040   80.1260 O.2   527  TRP527     -0.2867
    106  CB         8.0990   41.8330   77.5000 C.3   527  TRP527      0.0550
    107  CG         9.4510   42.2630   76.9060 C.ar  527  TRP527      0.0003
    108  CD1        9.7100   43.4160   76.2320 C.ar  527  TRP527      0.0946
    109  CD2       10.6890   41.5270   76.9270 C.ar  527  TRP527      0.0152
    110  NE1       11.0260   43.4580   75.8360 N.ar  527  TRP527     -0.2442
    111  CE2       11.6530   42.3130   76.2530 C.ar  527  TRP527      0.0810
    112  CE3       11.0800   40.2870   77.4590 C.ar  527  TRP527      0.0012
    113  CZ2       12.9800   41.9030   76.0930 C.ar  527  TRP527      0.0191
    114  CZ3       12.4150   39.8790   77.3000 C.ar  527  TRP527      0.0001
    115  CH2       13.3400   40.6810   76.6140 C.ar  527  TRP527      0.0015
    116  N          5.0970   44.8140   86.3890 N.3   532  LYS532     -0.1245
    117  CA         4.8390   45.5810   85.1740 C.3   532  LYS532      0.1561
    118  C          4.3030   46.9980   85.3800 C.2   532  LYS532      0.2260
    119  O          3.3940   47.2180   86.1820 O.2   532  LYS532     -0.2867
    120  CB         3.9360   44.7650   84.2490 C.3   532  LYS532      0.0271
    121  CG         4.7430   43.8570   83.3320 C.3   532  LYS532      0.0035
    122  CD         4.1680   42.4700   83.1930 C.3   532  LYS532      0.0206
    123  CE         5.0950   41.6250   82.3120 C.3   532  LYS532      0.1093
    124  NZ         4.9670   40.1470   82.5060 N.3   532  LYS532     -0.1314
@<TRIPOS>BOND
     1    64    65    1
     2     1     2    1
     3    66    67    2
     4    66    65    1
     5    65    68    1
     6    34    33    1
     7     9    10    1
     8     3     2    1
     9     3     4    2
    10    59    61   ar
    11    59    57   ar
    12     2     5    1
    13    61    62   ar
    14     5     6    1
    15    68    69    1
    16    68    70    1
    17    56    57    1
    18    56    53    1
    19     8     6    1
    20    54    53    1
    21    54    55    2
    22    33    35    1
    23    33    32    1
    24    57    58   ar
    25    14    15    1
    26    14    13    1
    27     6     7    1
    28    62    63    1
    29    62    60   ar
    30    10    13    1
    31    10    11    1
    32    53    52    1
    33    69    71    1
    34    15    16    1
    35    32    29    1
    36    11    20   am
    37    11    12    2
    38    20    21    1
    39    58    60   ar
    40    79    77    1
    41    22    21    1
    42    22    23    2
    43    49    48    2
    44    52    48   am
    45    16    17    2
    46    78    77    1
    47    21    24    1
    48    77    76    1
    49    24    25    1
    50    48    47    1
    51    18    17    1
    52    29    28    1
    53    29    30    1
    54    17    19    1
    55    39    38    2
    56    25    26    1
    57    30    36   am
    58    30    31    2
    59    36    37    1
    60    26    27    1
    61    72    73    1
    62    76    73    1
    63    38    46   am
    64    38    37    1
    65    47    46    1
    66    47    50    1
    67    73    74    1
    68    37    40    1
    69    50    51    1
    70   110   108   ar
    71   110   111   ar
    72   113   111   ar
    73   113   115   ar
    74   108   107   ar
    75   111   109   ar
    76    74    75    2
    77    74    80   am
    78   115   114   ar
    79    40    41    1
    80   107   109   ar
    81   107   106    1
    82   109   112   ar
    83    41    42   ar
    84    41    43   ar
    85    42    44   ar
    86   114   112   ar
    87    43    45   ar
    88    80    81    1
    89   106   103    1
    90    44    45   ar
    91    91    92    1
    92    81    82    1
    93    81    84    1
    94   103   102    1
    95   103   104    1
    96    85    84    1
    97    85    86    1
    98    82    83    2
    99    92    95    1
   100    92    93    1
   101    90    88    1
   102    87    86    1
   103    87    88    2
   104    95    96    1
   105   104   105    2
   106    88    89    1
   107    93    94    2
   108   101    99    1
   109    98    99    2
   110    98    97    1
   111    96    97    1
   112    99   100    1
   113   123   124    1
   114   123   122    1
   115   122   121    1
   116   121   120    1
   117   120   117    1
   118   117   118    1
   119   117   116    1
   120   118   119    2
