@<TRIPOS>MOLECULE
tmp/3cj9A00.pdb
 116 111 0 0 0
SMALL
GASTEIGER

@<TRIPOS>ATOM
      1  N         20.4730   38.3140   20.8690 N.3    12  GLY12      -0.1225
      2  CA        20.4580   37.1870   21.8240 C.3    12  GLY12       0.1811
      3  C         20.1420   37.7010   23.2100 C.2    12  GLY12       0.2280
      4  O         20.1200   38.9230   23.4340 O.2    12  GLY12      -0.2866
      5  N         21.8730   37.7110   25.9490 N.3    14  SER14      -0.1202
      6  CA        22.9470   38.3690   26.7490 C.3    14  SER14       0.2020
      7  C         23.6570   39.5030   25.9730 C.2    14  SER14       0.2618
      8  O         24.3650   40.3490   26.5620 O.2    14  SER14      -0.2717
      9  CB        24.0080   37.3460   27.2350 C.3    14  SER14       0.2103
     10  OG        24.7120   36.7650   26.1330 O.3    14  SER14      -0.2182
     11  N         23.4480   39.5350   24.6600 N.am   15  HIS15      -0.1975
     12  CA        24.0500   40.5870   23.8590 C.3    15  HIS15       0.1656
     13  C         23.5730   40.4780   22.4360 C.2    15  HIS15       0.2291
     14  O         23.0010   39.4500   22.0250 O.2    15  HIS15      -0.2864
     15  CB        25.5900   40.4330   23.8250 C.3    15  HIS15       0.0771
     16  CG        26.0460   39.2170   23.0990 C.ar   15  HIS15       0.0820
     17  ND1       26.8030   39.2780   21.9440 N.ar   15  HIS15      -0.2267
     18  CD2       25.8330   37.9020   23.3420 C.ar   15  HIS15       0.1154
     19  CE1       27.0160   38.0500   21.4950 C.ar   15  HIS15       0.1986
     20  NE2       26.4430   37.1980   22.3270 N.ar   15  HIS15      -0.2212
     21  N         23.2210   24.0320   20.2970 N.3   166  ASP166     -0.1225
     22  CA        23.5320   25.4530   20.5350 C.3   166  ASP166      0.1805
     23  C         23.2320   25.7220   22.0090 C.2   166  ASP166      0.2598
     24  O         22.1230   25.5200   22.4450 O.2   166  ASP166     -0.2718
     25  CB        22.5940   26.2550   19.6180 C.3   166  ASP166      0.1424
     26  CG        22.7650   27.8070   19.7110 C.2   166  ASP166      0.3668
     27  OD1       23.5650   28.3430   20.5270 O.co2 166  ASP166     -0.2456
     28  OD2       22.0560   28.5270   18.9260 O.co2 166  ASP166     -0.2456
     29  N         24.2120   26.1690   22.7670 N.am  167  LEU167     -0.1966
     30  CA        23.9080   26.5690   24.1650 C.3   167  LEU167      0.1728
     31  C         24.0510   28.0970   24.2370 C.2   167  LEU167      0.2617
     32  O         25.1840   28.6260   24.3130 O.2   167  LEU167     -0.2715
     33  CB        24.8670   25.9130   25.1680 C.3   167  LEU167      0.0311
     34  CG        24.6610   26.1880   26.6840 C.3   167  LEU167      0.0022
     35  CD1       23.2090   25.8170   27.1400 C.3   167  LEU167      0.0001
     36  CD2       25.7450   25.4750   27.5610 C.3   167  LEU167      0.0001
     37  N         22.9170   28.8100   24.1870 N.am  168  GLY168     -0.1940
     38  CA        22.9670   30.2530   24.2950 C.3   168  GLY168      0.2014
     39  C         22.7910   30.6110   25.7430 C.2   168  GLY168      0.2639
     40  O         23.0150   29.7520   26.6280 O.2   168  GLY168     -0.2714
     41  N         22.3700   31.8490   25.9730 N.am  169  GLY169     -0.1954
     42  CA        22.2580   32.3600   27.3520 C.3   169  GLY169      0.1869
     43  C         20.9360   31.9910   28.0080 C.2   169  GLY169      0.2309
     44  O         20.9090   31.7980   29.2190 O.2   169  GLY169     -0.2863
     45  N         22.7090   28.9240   29.2750 N.3   210  ARG210     -0.1231
     46  CA        23.7620   29.0450   30.3030 C.3   210  ARG210      0.1694
     47  C         23.4010   29.9930   31.4680 C.2   210  ARG210      0.2592
     48  O         23.5790   29.6410   32.6610 O.2   210  ARG210     -0.2718
     49  CB        25.0440   29.5520   29.6400 C.3   210  ARG210      0.0321
     50  CG        26.2160   29.6560   30.6010 C.3   210  ARG210      0.0489
     51  CD        27.4050   30.2480   29.8580 C.3   210  ARG210      0.2205
     52  NE        28.4780   30.5770   30.7780 N.pl3 210  ARG210     -0.0865
     53  CZ        28.5400   31.7230   31.4740 C.cat 210  ARG210      0.5346
     54  NH1       27.6090   32.6540   31.3290 N.pl3 210  ARG210      0.1354
     55  NH2       29.5180   31.9360   32.3330 N.pl3 210  ARG210      0.1354
     56  N         22.9890   31.2060   31.1340 N.am  211  ASP211     -0.1974
     57  CA        22.7480   32.2420   32.1710 C.3   211  ASP211      0.1709
     58  C         21.5410   31.8680   33.0450 C.2   211  ASP211      0.2293
     59  O         21.5410   32.0690   34.2690 O.2   211  ASP211     -0.2864
     60  CB        22.5330   33.5770   31.5100 C.3   211  ASP211      0.1436
     61  CG        23.8210   34.0730   30.7870 C.2   211  ASP211      0.3671
     62  OD1       24.9070   33.8850   31.3530 O.co2 211  ASP211     -0.2456
     63  OD2       23.7450   34.6310   29.6690 O.co2 211  ASP211     -0.2456
     64  N         28.5210   27.7500   20.3820 N.3   304  SER304     -0.1202
     65  CA        28.1920   28.7380   21.4370 C.3   304  SER304      0.2020
     66  C         28.8070   28.3020   22.7810 C.2   304  SER304      0.2618
     67  O         30.0030   27.9820   22.7930 O.2   304  SER304     -0.2717
     68  CB        26.6850   29.0930   21.4630 C.3   304  SER304      0.2103
     69  OG        25.9330   27.8950   21.4110 O.3   304  SER304     -0.2182
     70  N         28.0460   28.2900   23.8760 N.am  305  ALA305     -0.1979
     71  CA        28.6650   28.0370   25.1930 C.3   305  ALA305      0.1597
     72  C         29.1450   26.6070   25.3710 C.2   305  ALA305      0.2287
     73  O         29.9380   26.2990   26.3180 O.2   305  ALA305     -0.2864
     74  CB        27.7320   28.4790   26.3280 C.3   305  ALA305      0.0319
     75  N         32.6170   27.3680   24.2400 N.3   308  TYR308     -0.1227
     76  CA        33.3900   28.2470   25.1680 C.3   308  TYR308      0.1736
     77  C         33.7770   27.4590   26.4390 C.2   308  TYR308      0.2596
     78  O         34.8520   27.6280   26.9530 O.2   308  TYR308     -0.2718
     79  CB        32.6080   29.4890   25.6070 C.3   308  TYR308      0.0548
     80  CG        31.9630   30.3000   24.5110 C.ar  308  TYR308     -0.0200
     81  CD1       32.6580   30.6180   23.3570 C.ar  308  TYR308     -0.0009
     82  CD2       30.6470   30.7930   24.6670 C.ar  308  TYR308     -0.0009
     83  CE1       32.0550   31.3480   22.3270 C.ar  308  TYR308      0.0417
     84  CE2       30.0450   31.5180   23.6840 C.ar  308  TYR308      0.0417
     85  CZ        30.7490   31.7950   22.5060 C.ar  308  TYR308      0.1957
     86  OH        30.1440   32.5670   21.5190 O.3   308  TYR308     -0.2866
     87  N         32.9080   26.5610   26.8790 N.am  309  THR309     -0.1953
     88  CA        33.1690   25.8470   28.1270 C.3   309  THR309      0.1897
     89  C         34.2080   24.7680   27.9260 C.2   309  THR309      0.2313
     90  O         35.1340   24.6210   28.7190 O.2   309  THR309     -0.2863
     91  CB        31.8400   25.2700   28.6970 C.3   309  THR309      0.1794
     92  OG1       30.9300   26.3460   28.8730 O.3   309  THR309     -0.2208
     93  CG2       32.0960   24.6830   30.0560 C.3   309  THR309      0.0378
     94  N         33.2480   35.3840   34.5510 N.3   352  ARG352     -0.1245
     95  CA        32.7920   34.0050   34.2770 C.3   352  ARG352      0.1563
     96  C         33.5560   32.8900   34.9480 C.2   352  ARG352      0.2260
     97  O         33.0990   31.7380   34.9260 O.2   352  ARG352     -0.2867
     98  CB        32.6810   33.7010   32.7660 C.3   352  ARG352      0.0307
     99  CG        31.9170   34.7600   31.9690 C.3   352  ARG352      0.0489
    100  CD        31.8120   34.2740   30.5290 C.3   352  ARG352      0.2205
    101  NE        30.9350   35.1330   29.7340 N.pl3 352  ARG352     -0.0865
    102  CZ        31.3980   36.0750   28.9220 C.cat 352  ARG352      0.5346
    103  NH1       32.7210   36.2720   28.8170 N.pl3 352  ARG352      0.1354
    104  NH2       30.5520   36.8200   28.2140 N.pl3 352  ARG352      0.1354
    105  N         32.4780   28.3060   35.6110 N.3   356  TYR356     -0.1241
    106  CA        32.7910   27.1990   34.6580 C.3   356  TYR356      0.1605
    107  C         32.4520   25.8390   35.2230 C.2   356  TYR356      0.2264
    108  O         31.9620   24.9710   34.5050 O.2   356  TYR356     -0.2867
    109  CB        34.2720   27.2080   34.1900 C.3   356  TYR356      0.0534
    110  CG        34.5170   28.2600   33.1560 C.ar  356  TYR356     -0.0201
    111  CD1       34.0770   28.0720   31.8310 C.ar  356  TYR356     -0.0009
    112  CD2       35.1500   29.4700   33.4870 C.ar  356  TYR356     -0.0009
    113  CE1       34.2790   29.0680   30.8530 C.ar  356  TYR356      0.0417
    114  CE2       35.3550   30.4740   32.5180 C.ar  356  TYR356      0.0417
    115  CZ        34.9020   30.2400   31.1970 C.ar  356  TYR356      0.1957
    116  OH        35.0790   31.1790   30.2160 O.3   356  TYR356     -0.2866
@<TRIPOS>BOND
     1    28    26   ar
     2    25    26    1
     3    25    22    1
     4    26    27   ar
     5    21    22    1
     6    64    65    1
     7    22    23    1
     8     1     2    1
     9    69    68    1
    10    65    68    1
    11    65    66    1
    12    19    17   ar
    13    19    20   ar
    14    86    85    1
    15     2     3    1
    16    17    16   ar
    17    23    24    2
    18    23    29   am
    19    14    13    2
    20    83    85   ar
    21    83    81   ar
    22    20    18   ar
    23    13    12    1
    24    85    84   ar
    25    29    30    1
    26    66    67    2
    27    66    70   am
    28    16    18   ar
    29    16    15    1
    30     3     4    2
    31    81    80   ar
    32    84    82   ar
    33    15    12    1
    34    12    11    1
    35    70    71    1
    36    30    31    1
    37    30    33    1
    38    37    31   am
    39    37    38    1
    40    31    32    2
    41    75    76    1
    42    38    39    1
    43    80    82   ar
    44    80    79    1
    45    11     7   am
    46    76    79    1
    47    76    77    1
    48    33    34    1
    49    71    72    1
    50    71    74    1
    51    72    73    2
    52    39    41   am
    53    39    40    2
    54     5     6    1
    55     7     8    2
    56     7     6    1
    57    41    42    1
    58    10     9    1
    59    77    87   am
    60    77    78    2
    61    34    35    1
    62    34    36    1
    63     6     9    1
    64    87    88    1
    65    42    43    1
    66    89    88    1
    67    89    90    2
    68    43    44    2
    69    88    91    1
    70   104   102    1
    71    91    92    1
    72    91    93    1
    73   103   102    1
    74   102   101    2
    75    45    46    1
    76    49    46    1
    77    49    50    1
    78    63    61   ar
    79   101   100    1
    80    51    50    1
    81    51    52    1
    82   116   115    1
    83    46    47    1
    84   100    99    1
    85    52    53    2
    86    61    62   ar
    87    61    60    1
    88   113   115   ar
    89   113   111   ar
    90    56    47   am
    91    56    57    1
    92   115   114   ar
    93    54    53    1
    94    47    48    2
    95    53    55    1
    96    60    57    1
    97   111   110   ar
    98    99    98    1
    99    57    58    1
   100   114   112   ar
   101    98    95    1
   102    58    59    2
   103   110   112   ar
   104   110   109    1
   105   109   106    1
   106    95    94    1
   107    95    96    1
   108   108   107    2
   109   106   107    1
   110   106   105    1
   111    97    96    2
