@<TRIPOS>MOLECULE
tmp/3cjdB00.pdb
 163 156 0 0 0
SMALL
GASTEIGER

@<TRIPOS>ATOM
      1  N         20.6630   20.2630   44.1830 N.3    58  PHE58      -0.1241
      2  CA        21.1130   20.3410   45.5940 C.3    58  PHE58       0.1605
      3  C         20.5420   21.5800   46.3150 C.2    58  PHE58       0.2264
      4  O         20.0180   21.4540   47.4340 O.2    58  PHE58      -0.2867
      5  CB        22.6350   20.3720   45.7360 C.3    58  PHE58       0.0534
      6  CG        23.3590   19.1350   45.2760 C.ar   58  PHE58      -0.0203
      7  CD1       22.8470   17.8370   45.4350 C.ar   58  PHE58      -0.0042
      8  CD2       24.7090   19.2640   44.8950 C.ar   58  PHE58      -0.0042
      9  CE1       23.6030   16.7240   45.0750 C.ar   58  PHE58      -0.0003
     10  CE2       25.4720   18.1490   44.5650 C.ar   58  PHE58      -0.0003
     11  CZ        24.9240   16.8810   44.6480 C.ar   58  PHE58      -0.0000
     12  N         16.9710   21.0270   47.1550 N.3    61  LEU61      -0.1245
     13  CA        16.9580   20.1560   48.3490 C.3    61  LEU61       0.1561
     14  C         17.2840   20.9100   49.6260 C.2    61  LEU61       0.2260
     15  O         16.6180   20.7090   50.6440 O.2    61  LEU61      -0.2867
     16  CB        17.8870   18.9340   48.1820 C.3    61  LEU61       0.0270
     17  CG        17.3240   17.8220   47.3020 C.3    61  LEU61       0.0019
     18  CD1       18.4420   16.8650   46.8930 C.3    61  LEU61       0.0001
     19  CD2       16.2120   17.0850   48.0610 C.3    61  LEU61       0.0001
     20  N         14.7970   21.2470   52.9000 N.3    65  VAL65      -0.1245
     21  CA        15.2390   20.6990   54.1820 C.3    65  VAL65       0.1561
     22  C         15.3640   21.7920   55.2520 C.2    65  VAL65       0.2260
     23  O         15.0090   21.5360   56.4010 O.2    65  VAL65      -0.2867
     24  CB        16.4550   19.7800   53.9570 C.3    65  VAL65       0.0252
     25  CG1       17.0860   19.3400   55.2450 C.3    65  VAL65       0.0019
     26  CG2       15.9780   18.5780   53.1380 C.3    65  VAL65       0.0019
     27  N         14.7570   14.6480   61.8640 N.3    75  LEU75      -0.1245
     28  CA        15.1820   13.6400   60.8770 C.3    75  LEU75       0.1561
     29  C         13.9940   13.1460   60.0450 C.2    75  LEU75       0.2260
     30  O         14.0890   13.0400   58.8160 O.2    75  LEU75      -0.2867
     31  CB        15.8640   12.4520   61.5650 C.3    75  LEU75       0.0270
     32  CG        17.2060   12.7500   62.2450 C.3    75  LEU75       0.0019
     33  CD1       17.7390   11.6000   63.0730 C.3    75  LEU75       0.0001
     34  CD2       18.2020   13.1700   61.1850 C.3    75  LEU75       0.0001
     35  N         13.4070   13.8670   56.0880 N.3    78  SER78      -0.1217
     36  CA        13.2130   12.6570   55.2790 C.3    78  SER78       0.1889
     37  C         11.9090   12.7530   54.5040 C.2    78  SER78       0.2288
     38  O         11.8880   12.3760   53.3270 O.2    78  SER78      -0.2866
     39  CB        13.2580   11.4080   56.1640 C.3    78  SER78       0.2089
     40  OG        14.5370   11.3260   56.7640 O.3    78  SER78      -0.2183
     41  N         12.5580   14.9670   51.6600 N.3    81  TYR81      -0.1241
     42  CA        13.3190   14.1960   50.6430 C.3    81  TYR81       0.1605
     43  C         12.3710   13.3360   49.7710 C.2    81  TYR81       0.2264
     44  O         12.4770   13.3690   48.5420 O.2    81  TYR81      -0.2867
     45  CB        14.4480   13.3960   51.3210 C.3    81  TYR81       0.0534
     46  CG        15.2970   12.6170   50.3510 C.ar   81  TYR81      -0.0201
     47  CD1       16.1770   13.2710   49.4940 C.ar   81  TYR81      -0.0009
     48  CD2       15.1870   11.2240   50.2510 C.ar   81  TYR81      -0.0009
     49  CE1       16.9420   12.5580   48.5640 C.ar   81  TYR81       0.0417
     50  CE2       15.9370   10.5050   49.3240 C.ar   81  TYR81       0.0417
     51  CZ        16.8440   11.1790   48.5160 C.ar   81  TYR81       0.1957
     52  OH        17.6130   10.5120   47.6090 O.3    81  TYR81      -0.2866
     53  N         20.7520   13.0130   40.0220 N.3    95  LEU95      -0.1231
     54  CA        21.7160   13.0440   41.1370 C.3    95  LEU95       0.1693
     55  C         22.4040   11.6980   41.3270 C.2    95  LEU95       0.2592
     56  O         23.5920   11.6620   41.6290 O.2    95  LEU95      -0.2718
     57  CB        21.0770   13.4340   42.4840 C.3    95  LEU95       0.0284
     58  CG        20.3540   14.7710   42.6430 C.3    95  LEU95       0.0019
     59  CD1       19.7940   14.8990   44.0710 C.3    95  LEU95       0.0001
     60  CD2       21.3740   15.8940   42.3380 C.3    95  LEU95       0.0001
     61  N         21.6620   10.6150   41.1310 N.am   96  PHE96      -0.1976
     62  CA        22.1460    9.2410   41.3060 C.3    96  PHE96       0.1639
     63  C         22.6080    8.5250   40.0490 C.2    96  PHE96       0.2290
     64  O         23.3840    7.5870   40.1720 O.2    96  PHE96      -0.2864
     65  CB        21.0770    8.4470   42.0520 C.3    96  PHE96       0.0560
     66  CG        20.8070    8.9960   43.4040 C.ar   96  PHE96      -0.0200
     67  CD1       21.6200    8.6340   44.4750 C.ar   96  PHE96      -0.0042
     68  CD2       19.7690    9.9300   43.6110 C.ar   96  PHE96      -0.0042
     69  CE1       21.4180    9.1910   45.7510 C.ar   96  PHE96      -0.0003
     70  CE2       19.5450   10.4790   44.8710 C.ar   96  PHE96      -0.0003
     71  CZ        20.3620   10.1010   45.9540 C.ar   96  PHE96      -0.0000
     72  N         24.0850   10.2440   37.2200 N.3    98  VAL98      -0.1245
     73  CA        25.2920   10.8980   36.6780 C.3    98  VAL98       0.1561
     74  C         26.5660   10.1110   37.0450 C.2    98  VAL98       0.2260
     75  O         26.6060    9.4610   38.0870 O.2    98  VAL98      -0.2867
     76  CB        25.4160   12.3770   37.1830 C.3    98  VAL98       0.0252
     77  CG1       25.6390   12.4510   38.7000 C.3    98  VAL98       0.0019
     78  CG2       26.5200   13.1200   36.4500 C.3    98  VAL98       0.0019
     79  N         31.2770   20.6490   44.0980 N.3   109  TYR109     -0.1241
     80  CA        30.2090   19.6440   44.0480 C.3   109  TYR109      0.1605
     81  C         30.1730   18.8350   45.3410 C.2   109  TYR109      0.2264
     82  O         29.1110   18.7080   45.9400 O.2   109  TYR109     -0.2867
     83  CB        30.3900   18.7430   42.8250 C.3   109  TYR109      0.0534
     84  CG        29.1820   17.9130   42.5080 C.ar  109  TYR109     -0.0201
     85  CD1       28.1300   18.4640   41.7850 C.ar  109  TYR109     -0.0009
     86  CD2       29.1060   16.5650   42.8690 C.ar  109  TYR109     -0.0009
     87  CE1       27.0010   17.7070   41.4410 C.ar  109  TYR109      0.0417
     88  CE2       27.9730   15.7860   42.5210 C.ar  109  TYR109      0.0417
     89  CZ        26.9260   16.3710   41.8140 C.ar  109  TYR109      0.1957
     90  OH        25.8240   15.6380   41.4580 O.3   109  TYR109     -0.2866
     91  N         24.5260   19.6440   52.5070 N.3   115  LEU115     -0.1231
     92  CA        23.2320   18.9600   52.7260 C.3   115  LEU115      0.1693
     93  C         23.3010   17.9540   53.9000 C.2   115  LEU115      0.2592
     94  O         22.4090   17.9120   54.7400 O.2   115  LEU115     -0.2718
     95  CB        22.7250   18.2850   51.4590 C.3   115  LEU115      0.0284
     96  CG        22.4200   19.2140   50.2830 C.3   115  LEU115      0.0019
     97  CD1       22.1250   18.4190   49.0140 C.3   115  LEU115      0.0001
     98  CD2       21.2460   20.1360   50.6500 C.3   115  LEU115      0.0001
     99  N         24.3640   17.1580   53.9420 N.am  116  PHE116     -0.1976
    100  CA        24.6460   16.1890   55.0240 C.3   116  PHE116      0.1639
    101  C         24.8060   16.8010   56.4160 C.2   116  PHE116      0.2290
    102  O         24.4690   16.1330   57.3950 O.2   116  PHE116     -0.2864
    103  CB        25.8630   15.3110   54.6580 C.3   116  PHE116      0.0560
    104  CG        25.5360   14.0870   53.8410 C.ar  116  PHE116     -0.0200
    105  CD1       24.4190   13.9980   52.9870 C.ar  116  PHE116     -0.0042
    106  CD2       26.4470   13.0250   53.8460 C.ar  116  PHE116     -0.0042
    107  CE1       24.1650   12.8310   52.2520 C.ar  116  PHE116     -0.0003
    108  CE2       26.2140   11.8740   53.0760 C.ar  116  PHE116     -0.0003
    109  CZ        25.0750   11.7810   52.2840 C.ar  116  PHE116     -0.0000
    110  N         23.0130   19.0970   57.6660 N.3   118  TYR118     -0.1227
    111  CA        21.6510   19.2500   58.2010 C.3   118  TYR118      0.1736
    112  C         21.1980   17.9660   58.9220 C.2   118  TYR118      0.2595
    113  O         20.4220   18.0580   59.8670 O.2   118  TYR118     -0.2718
    114  CB        20.6330   19.7190   57.1470 C.3   118  TYR118      0.0548
    115  CG        21.0770   20.9680   56.4030 C.ar  118  TYR118     -0.0200
    116  CD1       21.4520   22.1290   57.1020 C.ar  118  TYR118     -0.0009
    117  CD2       21.0970   21.0110   54.9970 C.ar  118  TYR118     -0.0009
    118  CE1       21.9090   23.2820   56.4210 C.ar  118  TYR118      0.0417
    119  CE2       21.5300   22.1690   54.3070 C.ar  118  TYR118      0.0417
    120  CZ        21.9330   23.2980   55.0250 C.ar  118  TYR118      0.1957
    121  OH        22.3620   24.4460   54.3880 O.3   118  TYR118     -0.2866
    122  N         21.6510   16.7980   58.4530 N.am  119  ILE119     -0.1980
    123  CA        21.3510   15.4890   59.0580 C.3   119  ILE119      0.1595
    124  C         22.2410   15.2910   60.2920 C.2   119  ILE119      0.2287
    125  O         21.7850   14.7930   61.3240 O.2   119  ILE119     -0.2864
    126  CB        21.6460   14.3070   58.0790 C.3   119  ILE119      0.0276
    127  CG1       20.8520   14.4200   56.7750 C.3   119  ILE119      0.0022
    128  CG2       21.4240   12.9300   58.7680 C.3   119  ILE119      0.0022
    129  CD1       21.2150   13.4220   55.6810 C.3   119  ILE119      0.0001
    130  N         21.9820    6.3640   57.6520 N.3   141  LEU141     -0.1231
    131  CA        20.5490    6.7530   57.6970 C.3   141  LEU141      0.1693
    132  C         20.0770    7.4190   56.4180 C.2   141  LEU141      0.2592
    133  O         18.9010    7.2190   56.0320 O.2   141  LEU141     -0.2718
    134  CB        20.2360    7.6010   58.9330 C.3   141  LEU141      0.0284
    135  CG        20.5530    6.9330   60.2850 C.3   141  LEU141      0.0019
    136  CD1       20.3470    7.8890   61.4480 C.3   141  LEU141      0.0001
    137  CD2       19.7340    5.6650   60.4940 C.3   141  LEU141      0.0001
    138  N         20.9060    8.2670   55.8040 N.am  142  PHE142     -0.1976
    139  CA        20.5790    8.8450   54.5030 C.3   142  PHE142      0.1639
    140  C         20.3460    7.6930   53.5180 C.2   142  PHE142      0.2290
    141  O         19.3220    7.6860   52.8400 O.2   142  PHE142     -0.2864
    142  CB        21.6330    9.7530   53.8650 C.3   142  PHE142      0.0560
    143  CG        21.2620   10.1360   52.4520 C.ar  142  PHE142     -0.0200
    144  CD1       20.1080   10.8870   52.2530 C.ar  142  PHE142     -0.0042
    145  CD2       21.9250    9.6140   51.3370 C.ar  142  PHE142     -0.0042
    146  CE1       19.6500   11.1730   50.9640 C.ar  142  PHE142     -0.0003
    147  CE2       21.4800    9.9060   50.0290 C.ar  142  PHE142     -0.0003
    148  CZ        20.3420   10.6960   49.8620 C.ar  142  PHE142     -0.0000
    149  N         17.0510    5.8420   54.1910 N.3   145  VAL145     -0.1245
    150  CA        15.8600    6.6010   53.7200 C.3   145  VAL145      0.1561
    151  C         15.7480    6.5590   52.1910 C.2   145  VAL145      0.2260
    152  O         14.6650    6.4050   51.6580 O.2   145  VAL145     -0.2867
    153  CB        15.8620    8.0730   54.2290 C.3   145  VAL145      0.0252
    154  CG1       14.6800    8.9020   53.6810 C.3   145  VAL145      0.0019
    155  CG2       15.7730    8.0690   55.7350 C.3   145  VAL145      0.0019
    156  N         12.9660    5.8600   61.6440 N.3   172  LEU172     -0.1245
    157  CA        13.6810    6.9440   62.3520 C.3   172  LEU172      0.1561
    158  C         13.4530    7.1250   63.8560 C.2   172  LEU172      0.2260
    159  O         14.3710    7.5740   64.5550 O.2   172  LEU172     -0.2867
    160  CB        13.5990    8.2520   61.5480 C.3   172  LEU172      0.0270
    161  CG        14.3080    8.1680   60.1750 C.3   172  LEU172      0.0019
    162  CD1       14.0930    9.4170   59.3610 C.3   172  LEU172      0.0001
    163  CD2       15.8130    7.8560   60.2370 C.3   172  LEU172      0.0001
@<TRIPOS>BOND
     1    78    76    1
     2    73    74    1
     3    73    76    1
     4    73    72    1
     5    74    75    2
     6    76    77    1
     7    53    54    1
     8    63    64    2
     9    63    62    1
    10    61    62    1
    11    61    55   am
    12    54    55    1
    13    54    57    1
    14    62    65    1
    15    55    56    2
    16    87    85   ar
    17    87    89   ar
    18    90    89    1
    19    85    84   ar
    20    89    88   ar
    21    65    66    1
    22    60    58    1
    23    57    58    1
    24    84    83    1
    25    84    86   ar
    26    88    86   ar
    27    58    59    1
    28    83    80    1
    29    66    68   ar
    30    66    67   ar
    31    68    70   ar
    32    80    79    1
    33    80    81    1
    34     1     2    1
    35    67    69   ar
    36    10    11   ar
    37    10     8   ar
    38    11     9   ar
    39    70    71   ar
    40     8     6   ar
    41     9     7   ar
    42     6     7   ar
    43     6     5    1
    44    81    82    2
    45     2     5    1
    46     2     3    1
    47    69    71   ar
    48     3     4    2
    49    18    17    1
    50    12    13    1
    51    17    19    1
    52    17    16    1
    53    52    51    1
    54    16    13    1
    55    13    14    1
    56    51    49   ar
    57    51    50   ar
    58    44    43    2
    59    49    47   ar
    60    97    96    1
    61    50    48   ar
    62    47    46   ar
    63    14    15    2
    64    43    42    1
    65   148   147   ar
    66   148   146   ar
    67   147   145   ar
    68    48    46   ar
    69    96    98    1
    70    96    95    1
    71    46    45    1
    72    42    45    1
    73    42    41    1
    74   146   144   ar
    75   145   143   ar
    76    95    92    1
    77   152   151    2
    78   151   150    1
    79   107   109   ar
    80   107   105   ar
    81   144   143   ar
    82   109   108   ar
    83   143   142    1
    84    91    92    1
    85    92    93    1
    86   141   140    2
    87    20    21    1
    88   105   104   ar
    89   108   106   ar
    90    26    24    1
    91    38    37    2
    92   140   139    1
    93   154   153    1
    94   150   149    1
    95   150   153    1
    96   104   106   ar
    97   104   103    1
    98   142   139    1
    99    93    99   am
   100    93    94    2
   101    99   100    1
   102    24    21    1
   103    24    25    1
   104    21    22    1
   105   153   155    1
   106   119   117   ar
   107   119   120   ar
   108   121   120    1
   109   139   138    1
   110    37    36    1
   111   103   100    1
   112   117   115   ar
   113   100   101    1
   114   120   118   ar
   115    22    23    2
   116    36    35    1
   117    36    39    1
   118   129   127    1
   119   138   132   am
   120   133   132    2
   121    39    40    1
   122   115   116   ar
   123   115   114    1
   124   101   102    2
   125   132   131    1
   126   118   116   ar
   127   127   126    1
   128   114   111    1
   129   130   131    1
   130   110   111    1
   131   131   134    1
   132   126   128    1
   133   126   123    1
   134   111   112    1
   135   122   112   am
   136   122   123    1
   137    30    29    2
   138   112   113    2
   139   134   135    1
   140   123   124    1
   141   162   161    1
   142    29    28    1
   143   161   163    1
   144   161   160    1
   145   135   137    1
   146   135   136    1
   147   124   125    2
   148    28    31    1
   149    28    27    1
   150    34    32    1
   151   160   157    1
   152    31    32    1
   153   156   157    1
   154    32    33    1
   155   157   158    1
   156   158   159    2
