@<TRIPOS>MOLECULE
tmp/3cjfA00.pdb
 150 143 0 0 0
SMALL
GASTEIGER

@<TRIPOS>ATOM
      1  N         22.6060   21.2000   15.2580 N.3    24  LEU24      -0.1231
      2  CA        22.0230   20.7840   16.5260 C.3    24  LEU24       0.1693
      3  C         22.9830   19.8350   17.2350 C.2    24  LEU24       0.2593
      4  O         23.0440   19.8150   18.4540 O.2    24  LEU24      -0.2718
      5  CB        20.6800   20.0890   16.2770 C.3    24  LEU24       0.0284
      6  CG        19.5830   20.9200   15.6050 C.3    24  LEU24       0.0019
      7  CD1       18.4500   20.0150   15.1080 C.3    24  LEU24       0.0001
      8  CD2       19.0620   21.9990   16.5680 C.3    24  LEU24       0.0001
      9  N         23.7400   19.0590   16.4610 N.am   25  GLY25      -0.1942
     10  CA        24.7250   18.1400   17.0130 C.3    25  GLY25       0.2014
     11  C         25.6470   17.5380   15.9620 C.2    25  GLY25       0.2638
     12  O         25.3340   17.5090   14.7640 O.2    25  GLY25      -0.2714
     13  N         26.7890   17.0470   16.4310 N.am   26  ARG26      -0.1977
     14  CA        27.8250   16.4820   15.5740 C.3    26  ARG26       0.1597
     15  C         28.4660   15.3070   16.2870 C.2    26  ARG26       0.2287
     16  O         28.4950   15.2610   17.5200 O.2    26  ARG26      -0.2864
     17  CB        28.9100   17.5300   15.2740 C.3    26  ARG26       0.0334
     18  CG        29.9490   17.0940   14.2660 C.3    26  ARG26       0.0492
     19  CD        31.1090   18.0750   14.2520 C.3    26  ARG26       0.2205
     20  NE        30.6590   19.4400   13.9870 N.pl3  26  ARG26      -0.0865
     21  CZ        31.1310   20.5260   14.5960 C.cat  26  ARG26       0.5346
     22  NH1       32.0820   20.4290   15.5210 N.pl3  26  ARG26       0.1354
     23  NH2       30.6490   21.7200   14.2770 N.pl3  26  ARG26       0.1354
     24  N         23.9760   16.5130   12.6100 N.3    32  VAL32      -0.1245
     25  CA        22.5550   16.8230   12.5890 C.3    32  VAL32       0.1561
     26  C         22.3470   18.3340   12.5780 C.2    32  VAL32       0.2260
     27  O         22.8580   19.0290   13.4430 O.2    32  VAL32      -0.2867
     28  CB        21.8010   16.2240   13.7860 C.3    32  VAL32       0.0252
     29  CG1       20.3230   16.5930   13.7100 C.3    32  VAL32       0.0019
     30  CG2       21.9720   14.7120   13.8130 C.3    32  VAL32       0.0019
     31  N         19.5870   21.8120   11.6980 N.3    34  GLU34      -0.1245
     32  CA        18.2860   22.4040   11.4770 C.3    34  GLU34       0.1567
     33  C         18.2740   22.9580   10.0510 C.2    34  GLU34       0.2260
     34  O         19.2690   23.4960    9.6170 O.2    34  GLU34      -0.2867
     35  CB        18.1060   23.5110   12.5210 C.3    34  GLU34       0.0388
     36  CG        16.7130   23.9420   12.7370 C.3    34  GLU34       0.1160
     37  CD        16.5820   24.9370   13.8660 C.2    34  GLU34       0.3649
     38  OE1       17.2540   24.7850   14.9210 O.co2  34  GLU34      -0.2457
     39  OE2       15.7670   25.8610   13.6990 O.co2  34  GLU34      -0.2457
     40  N         14.7870   18.6680   10.7160 N.3    49  ALA49      -0.1245
     41  CA        16.0920   18.2300   11.2090 C.3    49  ALA49       0.1562
     42  C         16.7440   17.3120   10.1610 C.2    49  ALA49       0.2260
     43  O         16.0990   16.4080    9.6110 O.2    49  ALA49      -0.2867
     44  CB        15.9380   17.4870   12.5620 C.3    49  ALA49       0.0290
     45  N         10.0770   10.1770   16.3540 N.3    82  VAL82      -0.1245
     46  CA        10.5680   11.1510   15.3860 C.3    82  VAL82       0.1561
     47  C         10.4330   10.5780   13.9710 C.2    82  VAL82       0.2260
     48  O         11.1590    9.6580   13.5930 O.2    82  VAL82      -0.2867
     49  CB        12.0440   11.5680   15.6710 C.3    82  VAL82       0.0252
     50  CG1       12.5220   12.5300   14.6310 C.3    82  VAL82       0.0019
     51  CG2       12.1910   12.1850   17.1120 C.3    82  VAL82       0.0019
     52  N         14.0930   14.5170    8.9760 N.3    99  VAL99      -0.1231
     53  CA        13.0720   14.1120    9.9440 C.3    99  VAL99       0.1692
     54  C         12.3480   15.3120   10.5670 C.2    99  VAL99       0.2592
     55  O         12.7380   16.4580   10.3540 O.2    99  VAL99      -0.2718
     56  CB        13.6850   13.2370   11.0610 C.3    99  VAL99       0.0266
     57  CG1       14.4800   12.0550   10.4390 C.3    99  VAL99       0.0020
     58  CG2       14.5800   14.0560   12.0040 C.3    99  VAL99       0.0020
     59  N         11.2810   15.0400   11.3230 N.am  100  GLU100     -0.1966
     60  CA        10.5620   16.0970   12.0330 C.3   100  GLU100      0.1733
     61  C         11.4750   16.8180   13.0150 C.2   100  GLU100      0.2616
     62  O         12.2660   16.1730   13.7030 O.2   100  GLU100     -0.2715
     63  CB         9.4160   15.4950   12.8120 C.3   100  GLU100      0.0429
     64  CG         8.3830   14.8590   11.9410 C.3   100  GLU100      0.1163
     65  CD         7.3820   14.0630   12.7310 C.2   100  GLU100      0.3649
     66  OE1        7.7800   13.3550   13.7070 O.co2 100  GLU100     -0.2457
     67  OE2        6.1920   14.1290   12.3340 O.co2 100  GLU100     -0.2457
     68  N         11.3450   18.1350   13.1060 N.am  101  PHE101     -0.1960
     69  CA        12.1100   18.9480   14.0760 C.3   101  PHE101      0.1771
     70  C         11.2870   19.1570   15.3280 C.2   101  PHE101      0.2620
     71  O         10.1110   19.5120   15.2460 O.2   101  PHE101     -0.2715
     72  CB        12.4980   20.2940   13.4630 C.3   101  PHE101      0.0574
     73  CG        13.2360   21.2250   14.4050 C.ar  101  PHE101     -0.0200
     74  CD1       14.4660   20.8790   14.9230 C.ar  101  PHE101     -0.0042
     75  CD2       12.7100   22.4650   14.7250 C.ar  101  PHE101     -0.0042
     76  CE1       15.1430   21.7390   15.7680 C.ar  101  PHE101     -0.0003
     77  CE2       13.3710   23.3330   15.5820 C.ar  101  PHE101     -0.0003
     78  CZ        14.5880   22.9750   16.1040 C.ar  101  PHE101     -0.0000
     79  N         11.9040   18.9040   16.4860 N.am  102  CYS102     -0.1954
     80  CA        11.2620   19.0760   17.7790 C.3   102  CYS102      0.1843
     81  C         11.9490   20.2640   18.4230 C.2   102  CYS102      0.2625
     82  O         13.0820   20.1580   18.9080 O.2   102  CYS102     -0.2714
     83  CB        11.3880   17.8180   18.6440 C.3   102  CYS102      0.0997
     84  SG        10.6390   16.3560   17.8830 S.3   102  CYS102     -0.0797
     85  N         11.2430   21.3870   18.4150 N.am  103  LYS103     -0.1963
     86  CA        11.8570   22.6770   18.7130 C.3   103  LYS103      0.1728
     87  C         12.2510   22.9220   20.1590 C.2   103  LYS103      0.2616
     88  O         13.0590   23.8010   20.4080 O.2   103  LYS103     -0.2715
     89  CB        10.9860   23.8320   18.1920 C.3   103  LYS103      0.0311
     90  CG         9.8910   24.3050   19.1190 C.3   103  LYS103      0.0038
     91  CD         9.0400   25.4190   18.4620 C.3   103  LYS103      0.0206
     92  CE         9.8810   26.6120   17.9490 C.3   103  LYS103      0.1093
     93  NZ         9.2150   27.9560   18.1270 N.3   103  LYS103     -0.1314
     94  N         11.7310   22.1480   21.1060 N.am  104  PHE104     -0.1960
     95  CA        12.1420   22.3050   22.5070 C.3   104  PHE104      0.1771
     96  C         13.2690   21.3480   22.9090 C.2   104  PHE104      0.2620
     97  O         13.6510   21.3050   24.0800 O.2   104  PHE104     -0.2715
     98  CB        10.9330   22.1510   23.4500 C.3   104  PHE104      0.0574
     99  CG         9.8440   23.1410   23.1750 C.ar  104  PHE104     -0.0200
    100  CD1       10.0390   24.4880   23.4450 C.ar  104  PHE104     -0.0042
    101  CD2        8.6460   22.7440   22.6060 C.ar  104  PHE104     -0.0042
    102  CE1        9.0480   25.4280   23.1620 C.ar  104  PHE104     -0.0003
    103  CE2        7.6460   23.6790   22.3210 C.ar  104  PHE104     -0.0003
    104  CZ         7.8500   25.0190   22.5990 C.ar  104  PHE104     -0.0000
    105  N         13.7920   20.5760   21.9540 N.am  105  GLY105     -0.1940
    106  CA        14.8950   19.6500   22.2350 C.3   105  GLY105      0.2014
    107  C         14.5490   18.5370   23.2050 C.2   105  GLY105      0.2638
    108  O         13.3910   18.1590   23.3350 O.2   105  GLY105     -0.2714
    109  N         15.5610   18.0260   23.9040 N.am  106  ASN106     -0.1972
    110  CA        15.4330   16.8040   24.7030 C.3   106  ASN106      0.1688
    111  C         14.7150   16.9950   26.0340 C.2   106  ASN106      0.2292
    112  O         14.8360   18.0410   26.6720 O.2   106  ASN106     -0.2864
    113  CB        16.8020   16.1350   24.9050 C.3   106  ASN106      0.1181
    114  CG        17.5020   16.5640   26.1810 C.2   106  ASN106      0.2629
    115  OD1       17.1130   16.1770   27.2850 O.2   106  ASN106     -0.2716
    116  ND2       18.5690   17.3120   26.0340 N.am  106  ASN106     -0.0877
    117  N         16.6400   17.7730   29.6900 N.3   109  THR109     -0.1218
    118  CA        17.1140   19.1550   29.7740 C.3   109  THR109      0.1862
    119  C         15.9350   20.1070   29.9900 C.2   109  THR109      0.2287
    120  O         16.0070   21.0260   30.8090 O.2   109  THR109     -0.2866
    121  CB        17.8980   19.5630   28.5050 C.3   109  THR109      0.1770
    122  OG1       19.0190   18.6840   28.3430 O.3   109  THR109     -0.2211
    123  CG2       18.3970   21.0150   28.6000 C.3   109  THR109      0.0375
    124  N         16.8370   11.8910   27.7880 N.3   156  ARG156     -0.1231
    125  CA        17.6790   12.5840   26.8160 C.3   156  ARG156      0.1694
    126  C         17.3000   12.1980   25.3690 C.2   156  ARG156      0.2592
    127  O         17.5110   12.9700   24.4470 O.2   156  ARG156     -0.2718
    128  CB        19.1650   12.2920   27.0700 C.3   156  ARG156      0.0321
    129  CG        19.5510   10.8210   26.8940 C.3   156  ARG156      0.0489
    130  CD        21.0580   10.5380   26.9830 C.3   156  ARG156      0.2205
    131  NE        21.2810    9.1190   27.2960 N.pl3 156  ARG156     -0.0865
    132  CZ        21.2510    8.6020   28.5270 C.cat 156  ARG156      0.5346
    133  NH1       21.4410    7.2950   28.7100 N.pl3 156  ARG156      0.1354
    134  NH2       21.0320    9.3820   29.5840 N.pl3 156  ARG156      0.1354
    135  N         16.7380   11.0040   25.1870 N.am  157  ASN157     -0.1974
    136  CA        16.3600   10.5270   23.8560 C.3   157  ASN157      0.1688
    137  C         14.8870   10.7360   23.5370 C.2   157  ASN157      0.2292
    138  O         14.3950   10.2350   22.5300 O.2   157  ASN157     -0.2864
    139  CB        16.7870    9.0640   23.6800 C.3   157  ASN157      0.1181
    140  CG        18.3000    8.9220   23.6900 C.2   157  ASN157      0.2629
    141  OD1       19.0080    9.8150   23.2180 O.2   157  ASN157     -0.2716
    142  ND2       18.8030    7.8380   24.2690 N.am  157  ASN157     -0.0877
    143  N         12.3210   13.7580   22.6870 N.3   159  LEU159     -0.1245
    144  CA        12.3150   15.1540   22.2670 C.3   159  LEU159      0.1561
    145  C         10.9360   15.7410   22.4350 C.2   159  LEU159      0.2260
    146  O          9.9620   15.0270   22.3890 O.2   159  LEU159     -0.2867
    147  CB        12.7520   15.2840   20.8030 C.3   159  LEU159      0.0270
    148  CG        14.0620   14.5890   20.4370 C.3   159  LEU159      0.0019
    149  CD1       14.4800   14.9290   18.9800 C.3   159  LEU159      0.0001
    150  CD2       15.1750   14.9540   21.4480 C.3   159  LEU159      0.0001
@<TRIPOS>BOND
     1    52    53    1
     2    43    42    2
     3    34    33    2
     4    53    54    1
     5    53    56    1
     6    33    32    1
     7    42    41    1
     8    55    54    2
     9    57    56    1
    10    54    59   am
    11    40    41    1
    12    56    58    1
    13    41    44    1
    14    59    60    1
    15    32    31    1
    16    32    35    1
    17    64    65    1
    18    64    63    1
    19    60    63    1
    20    60    61    1
    21    67    65   ar
    22    35    36    1
    23    26    25    1
    24    26    27    2
    25    25    24    1
    26    25    28    1
    27    65    66   ar
    28    36    37    1
    29    61    68   am
    30    61    62    2
    31    68    69    1
    32    72    69    1
    33    72    73    1
    34    48    47    2
    35    39    37   ar
    36    29    28    1
    37    28    30    1
    38    37    38   ar
    39    47    46    1
    40    20    19    1
    41    20    21    2
    42    69    70    1
    43    19    18    1
    44    18    17    1
    45    23    21    1
    46    73    75   ar
    47    73    74   ar
    48    21    22    1
    49    50    49    1
    50    75    77   ar
    51    12    11    2
    52    74    76   ar
    53     7     6    1
    54    71    70    2
    55     1     2    1
    56    17    14    1
    57    70    79   am
    58    46    49    1
    59    46    45    1
    60    14    15    1
    61    14    13    1
    62    77    78   ar
    63     6     5    1
    64     6     8    1
    65    49    51    1
    66    76    78   ar
    67    11    13   am
    68    11    10    1
    69     5     2    1
    70    15    16    2
    71     9    10    1
    72     9     3   am
    73    79    80    1
    74     2     3    1
    75     3     4    2
    76    80    81    1
    77    80    83    1
    78    84    83    1
    79    92    93    1
    80    92    91    1
    81    89    86    1
    82    89    90    1
    83    85    81   am
    84    85    86    1
    85    81    82    2
    86    91    90    1
    87    86    87    1
    88   149   148    1
    89    87    88    2
    90    87    94   am
    91   148   147    1
    92   148   150    1
    93   147   144    1
    94    94    95    1
    95   105   106    1
    96   105    96   am
    97   106   107    1
    98   144   145    1
    99   144   143    1
   100   103   104   ar
   101   103   101   ar
   102   146   145    2
   103    95    96    1
   104    95    98    1
   105   138   137    2
   106   104   102   ar
   107   101    99   ar
   108    96    97    2
   109   102   100   ar
   110    99   100   ar
   111    99    98    1
   112   107   108    2
   113   107   109   am
   114   141   140    2
   115   137   136    1
   116   139   140    1
   117   139   136    1
   118   140   142   am
   119   136   135    1
   120   109   110    1
   121   127   126    2
   122   110   113    1
   123   110   111    1
   124   113   114    1
   125   135   126   am
   126   126   125    1
   127   116   114   am
   128   111   112    2
   129   114   115    2
   130   125   128    1
   131   125   124    1
   132   129   130    1
   133   129   128    1
   134   130   131    1
   135   131   132    2
   136   122   121    1
   137   121   123    1
   138   121   118    1
   139   132   133    1
   140   132   134    1
   141   117   118    1
   142   118   119    1
   143   119   120    2
