@<TRIPOS>MOLECULE
tmp/3cjgA00.pdb
 193 183 0 0 0
SMALL
GASTEIGER

@<TRIPOS>ATOM
      1  N         14.0680   37.2800   -0.0720 N.3    24  PRO24      -0.2102
      2  CA        14.2340   37.7720    1.2880 C.3    24  PRO24       0.1504
      3  C         13.4800   39.0760    1.5330 C.2    24  PRO24       0.2575
      4  O         13.3700   39.9190    0.6430 O.2    24  PRO24      -0.2718
      5  CB        15.7570   37.9890    1.4380 C.3    24  PRO24       0.0282
      6  CG        16.3550   37.7990    0.1120 C.3    24  PRO24       0.0208
      7  CD        15.3480   37.1830   -0.8040 C.3    24  PRO24       0.0893
      8  N         12.9600   39.1940    2.7460 N.am   25  LEU25      -0.1980
      9  CA        12.2880   40.3870    3.2460 C.3    25  LEU25       0.1596
     10  C         13.1760   41.0920    4.2720 C.2    25  LEU25       0.2287
     11  O         12.7140   41.9720    4.9920 O.2    25  LEU25      -0.2864
     12  CB        10.9500   40.0090    3.8950 C.3    25  LEU25       0.0297
     13  CG         9.8700   39.5200    2.9410 C.3    25  LEU25       0.0022
     14  CD1        8.6560   39.0920    3.7200 C.3    25  LEU25       0.0001
     15  CD2        9.5120   40.5830    1.9020 C.3    25  LEU25       0.0001
     16  N         14.2780   36.6290    7.3000 N.3    30  VAL30      -0.1245
     17  CA        12.9120   36.5280    6.8670 C.3    30  VAL30       0.1561
     18  C         12.8470   36.4790    5.3410 C.2    30  VAL30       0.2260
     19  O         13.4500   37.2930    4.6470 O.2    30  VAL30      -0.2867
     20  CB        12.0740   37.6660    7.4110 C.3    30  VAL30       0.0252
     21  CG1       10.6330   37.5340    6.9320 C.3    30  VAL30       0.0019
     22  CG2       12.1470   37.6560    8.9320 C.3    30  VAL30       0.0019
     23  N         10.0880   35.7280    1.9010 N.3    32  GLU32      -0.1245
     24  CA         8.7880   35.5480    1.3030 C.3    32  GLU32       0.1567
     25  C          8.7660   34.1260    0.7460 C.2    32  GLU32       0.2260
     26  O          9.7880   33.6340    0.2860 O.2    32  GLU32      -0.2867
     27  CB         8.5930   36.5950    0.2090 C.3    32  GLU32       0.0388
     28  CG         7.1710   36.7540   -0.2860 C.3    32  GLU32       0.1160
     29  CD         7.0410   37.8370   -1.3380 C.2    32  GLU32       0.3649
     30  OE1        7.8460   38.7950   -1.3360 O.co2  32  GLU32      -0.2457
     31  OE2        6.1260   37.7400   -2.1780 O.co2  32  GLU32      -0.2457
     32  N          5.2710   34.5640    5.0150 N.3    47  ALA47      -0.1245
     33  CA         6.5880   35.0280    5.4260 C.3    47  ALA47       0.1562
     34  C          7.2140   33.9950    6.3500 C.2    47  ALA47       0.2260
     35  O          6.5490   33.4420    7.2130 O.2    47  ALA47      -0.2867
     36  CB         6.4960   36.4090    6.1270 C.3    47  ALA47       0.0290
     37  N         10.5220   33.1150    8.8600 N.3    49  LYS49      -0.1245
     38  CA        11.7310   33.4020    9.6170 C.3    49  LYS49       0.1561
     39  C         12.5090   32.1030    9.7620 C.2    49  LYS49       0.2260
     40  O         12.0080   31.1220   10.3050 O.2    49  LYS49      -0.2867
     41  CB        11.3860   33.9780   10.9970 C.3    49  LYS49       0.0271
     42  CG        12.5810   34.1330   11.9570 C.3    49  LYS49       0.0035
     43  CD        12.9330   35.5730   12.2260 C.3    49  LYS49       0.0206
     44  CE        13.9950   35.7060   13.3090 C.3    49  LYS49       0.1093
     45  NZ        13.6990   36.8340   14.2480 N.3    49  LYS49      -0.1314
     46  N         14.7680   31.3710   18.4080 N.3    63  LEU63      -0.1245
     47  CA        13.7050   31.2410   17.4120 C.3    63  LEU63       0.1561
     48  C         12.6130   30.2930   17.9070 C.2    63  LEU63       0.2260
     49  O         11.4260   30.5460   17.7050 O.2    63  LEU63      -0.2867
     50  CB        14.2600   30.7900   16.0470 C.3    63  LEU63       0.0270
     51  CG        13.2650   30.7000   14.8610 C.3    63  LEU63       0.0019
     52  CD1       12.4180   31.9510   14.7510 C.3    63  LEU63       0.0001
     53  CD2       13.9950   30.4500   13.5260 C.3    63  LEU63       0.0001
     54  N         10.4540   32.3920   20.2180 N.3    66  GLU66      -0.1245
     55  CA         9.5420   33.1920   19.3860 C.3    66  GLU66       0.1567
     56  C          8.2850   32.4010   19.0170 C.2    66  GLU66       0.2260
     57  O          7.1600   32.8890   19.1520 O.2    66  GLU66      -0.2867
     58  CB        10.2240   33.6290   18.0730 C.3    66  GLU66       0.0388
     59  CG        11.1100   34.8770   18.1550 C.3    66  GLU66       0.1160
     60  CD        11.2530   35.5740   16.7990 C.2    66  GLU66       0.3649
     61  OE1       10.2150   35.8130   16.1450 O.co2  66  GLU66      -0.2457
     62  OE2       12.3870   35.8930   16.3880 O.co2  66  GLU66      -0.2457
     63  N          4.3360   32.9760   20.2750 N.3    70  LEU70      -0.1245
     64  CA         3.2520   33.1960   19.3250 C.3    70  LEU70       0.1561
     65  C          2.1180   32.1780   19.4860 C.2    70  LEU70       0.2260
     66  O          0.9390   32.5380   19.4440 O.2    70  LEU70      -0.2867
     67  CB         3.7800   33.1720   17.8980 C.3    70  LEU70       0.0270
     68  CG         4.6800   34.3300   17.4520 C.3    70  LEU70       0.0019
     69  CD1        5.3700   33.9710   16.1280 C.3    70  LEU70       0.0001
     70  CD2        3.8950   35.6360   17.3170 C.3    70  LEU70       0.0001
     71  N          0.5030   39.9260   13.7330 N.3    80  VAL80      -0.1245
     72  CA         0.9880   39.0140   12.7100 C.3    80  VAL80       0.1561
     73  C          0.8330   37.5940   13.2310 C.2    80  VAL80       0.2260
     74  O          1.4830   37.2270   14.2060 O.2    80  VAL80      -0.2867
     75  CB         2.4710   39.2930   12.3510 C.3    80  VAL80       0.0252
     76  CG1        2.9840   38.3440   11.2590 C.3    80  VAL80       0.0019
     77  CG2        2.6560   40.7900   11.9070 C.3    80  VAL80       0.0019
     78  N          9.8170   29.4570   10.8900 N.3    95  VAL95      -0.1245
     79  CA         8.5880   29.9050   11.5220 C.3    95  VAL95       0.1561
     80  C          7.7320   30.6310   10.4880 C.2    95  VAL95       0.2260
     81  O          8.1440   31.6130    9.9070 O.2    95  VAL95      -0.2867
     82  CB         8.8870   30.7970   12.7500 C.3    95  VAL95       0.0252
     83  CG1        7.5970   31.3290   13.3840 C.3    95  VAL95       0.0019
     84  CG2        9.7070   30.0060   13.7860 C.3    95  VAL95       0.0019
     85  N          4.5400   32.7060    9.1690 N.3    97  VAL97      -0.1231
     86  CA         3.5190   33.6570    9.5500 C.3    97  VAL97       0.1692
     87  C          2.8140   34.2540    8.3360 C.2    97  VAL97       0.2592
     88  O          3.2300   34.0810    7.1920 O.2    97  VAL97      -0.2718
     89  CB         4.1000   34.8250   10.4020 C.3    97  VAL97       0.0266
     90  CG1        4.7470   34.2960   11.6710 C.3    97  VAL97       0.0020
     91  CG2        5.0900   35.6720    9.5860 C.3    97  VAL97       0.0020
     92  N          1.7300   34.9630    8.6290 N.am   98  GLU98      -0.1966
     93  CA         0.9590   35.7150    7.6380 C.3    98  GLU98       0.1733
     94  C          1.8340   36.7660    6.9670 C.2    98  GLU98       0.2616
     95  O          2.6000   37.4470    7.6530 O.2    98  GLU98      -0.2715
     96  CB        -0.2070   36.4080    8.3450 C.3    98  GLU98       0.0429
     97  CG        -1.2260   35.4240    8.8900 C.3    98  GLU98       0.1163
     98  CD        -2.2740   36.0420    9.8190 C.2    98  GLU98       0.3649
     99  OE1       -2.0390   37.1670   10.3690 O.co2  98  GLU98      -0.2457
    100  OE2       -3.3300   35.3480   10.0200 O.co2  98  GLU98      -0.2457
    101  N          1.7450   36.8620    5.6400 N.am   99  PHE99      -0.1960
    102  CA         2.5310   37.8230    4.8370 C.3    99  PHE99       0.1771
    103  C          1.7670   39.1260    4.7240 C.2    99  PHE99       0.2620
    104  O          0.5930   39.1440    4.3400 O.2    99  PHE99      -0.2715
    105  CB         2.8280   37.2880    3.4250 C.3    99  PHE99       0.0574
    106  CG         3.6140   38.2540    2.5420 C.ar   99  PHE99      -0.0200
    107  CD1        4.8590   38.7350    2.9410 C.ar   99  PHE99      -0.0042
    108  CD2        3.1110   38.6640    1.3160 C.ar   99  PHE99      -0.0042
    109  CE1        5.5840   39.6060    2.1390 C.ar   99  PHE99      -0.0003
    110  CE2        3.8230   39.5460    0.5040 C.ar   99  PHE99      -0.0003
    111  CZ         5.0630   40.0210    0.9120 C.ar   99  PHE99      -0.0000
    112  N          2.4310   40.2140    5.0880 N.am  100  CYS100     -0.1954
    113  CA         1.8580   41.5470    4.9530 C.3   100  CYS100      0.1843
    114  C          2.5510   42.1980    3.7530 C.2   100  CYS100      0.2625
    115  O          3.7530   42.4910    3.7890 O.2   100  CYS100     -0.2714
    116  CB         2.0510   42.3190    6.2500 C.3   100  CYS100      0.0997
    117  SG         1.2700   41.4640    7.6680 S.3   100  CYS100     -0.0797
    118  N          1.7950   42.3710    2.6760 N.am  101  LYS101     -0.1963
    119  CA         2.3930   42.7110    1.3760 C.3   101  LYS101      0.1728
    120  C          2.8970   44.1500    1.2450 C.2   101  LYS101      0.2616
    121  O          3.7180   44.4250    0.3720 O.2   101  LYS101     -0.2715
    122  CB         1.4320   42.3720    0.2140 C.3   101  LYS101      0.0311
    123  CG         0.3710   43.4360   -0.0980 C.3   101  LYS101      0.0038
    124  CD        -0.3950   43.1970   -1.4380 C.3   101  LYS101      0.0206
    125  CE         0.4780   42.6170   -2.5760 C.3   101  LYS101      0.1093
    126  NZ        -0.1190   42.8190   -3.9520 N.3   101  LYS101     -0.1314
    127  N          2.4160   45.0550    2.0970 N.am  102  PHE102     -0.1960
    128  CA         2.8170   46.4750    2.0390 C.3   102  PHE102      0.1771
    129  C          3.9790   46.8630    2.9590 C.2   102  PHE102      0.2620
    130  O          4.4040   48.0250    2.9690 O.2   102  PHE102     -0.2715
    131  CB         1.5990   47.3820    2.2750 C.3   102  PHE102      0.0574
    132  CG         0.5470   47.2120    1.2360 C.ar  102  PHE102     -0.0200
    133  CD1        0.7800   47.6220   -0.0650 C.ar  102  PHE102     -0.0042
    134  CD2       -0.6410   46.5710    1.5300 C.ar  102  PHE102     -0.0042
    135  CE1       -0.1750   47.4190   -1.0550 C.ar  102  PHE102     -0.0003
    136  CE2       -1.6030   46.3730    0.5560 C.ar  102  PHE102     -0.0003
    137  CZ        -1.3710   46.7950   -0.7420 C.ar  102  PHE102     -0.0000
    138  N          4.5010   45.9000    3.7160 N.am  103  GLY103     -0.1940
    139  CA         5.6560   46.1420    4.5680 C.3   103  GLY103      0.2014
    140  C          5.2880   47.0240    5.7360 C.2   103  GLY103      0.2638
    141  O          4.1150   47.1020    6.1060 O.2   103  GLY103     -0.2714
    142  N          6.2830   47.6770    6.3270 N.am  104  ASN104     -0.1972
    143  CA         6.0830   48.4060    7.5810 C.3   104  ASN104      0.1688
    144  C          5.3450   49.7190    7.3560 C.2   104  ASN104      0.2292
    145  O          5.4880   50.3550    6.3060 O.2   104  ASN104     -0.2864
    146  CB         7.4240   48.6370    8.3110 C.3   104  ASN104      0.1181
    147  CG         8.1590   49.8860    7.8360 C.2   104  ASN104      0.2629
    148  OD1        7.7910   51.0100    8.1970 O.2   104  ASN104     -0.2716
    149  ND2        9.2240   49.6930    7.0590 N.am  104  ASN104     -0.0877
    150  N          7.4090   51.1720   12.5960 N.3   158  ARG158     -0.1245
    151  CA         8.2350   50.2120   11.8700 C.3   158  ARG158      0.1563
    152  C          7.9180   48.7610   12.2600 C.2   158  ARG158      0.2260
    153  O          8.2350   47.8400   11.5160 O.2   158  ARG158     -0.2867
    154  CB         9.7320   50.4910   12.0990 C.3   158  ARG158      0.0307
    155  CG        10.1880   50.1930   13.5300 C.3   158  ARG158      0.0489
    156  CD        11.6950   50.2760   13.7630 C.3   158  ARG158      0.2205
    157  NE        11.9480   50.2740   15.2100 N.pl3 158  ARG158     -0.0865
    158  CZ        11.7900   51.3300   16.0140 C.cat 158  ARG158      0.5346
    159  NH1       11.4090   52.5100   15.5370 N.pl3 158  ARG158      0.1354
    160  NH2       12.0160   51.2120   17.3120 N.pl3 158  ARG158      0.1354
    161  N          2.7940   46.3060   10.5470 N.3   161  LEU161     -0.1245
    162  CA         2.8440   45.8760    9.1770 C.3   161  LEU161      0.1561
    163  C          1.4860   46.0810    8.5390 C.2   161  LEU161      0.2260
    164  O          0.4580   45.8730    9.1830 O.2   161  LEU161     -0.2867
    165  CB         3.2590   44.3960    9.0860 C.3   161  LEU161      0.0270
    166  CG         4.6850   44.0320    9.5020 C.3   161  LEU161      0.0019
    167  CD1        5.0130   42.5890    9.0910 C.3   161  LEU161      0.0001
    168  CD2        5.7400   45.0130    8.9290 C.3   161  LEU161      0.0001
    169  N          3.7390   43.4400   14.7400 N.3   171  CYS171     -0.1221
    170  CA         4.7270   42.3820   14.6580 C.3   171  CYS171      0.1808
    171  C          5.8510   42.5730   15.6770 C.2   171  CYS171      0.2601
    172  O          5.7000   43.3020   16.6440 O.2   171  CYS171     -0.2717
    173  CB         5.2520   42.2640   13.2300 C.3   171  CYS171      0.0970
    174  SG         6.3140   43.5780   12.7340 S.3   171  CYS171     -0.0800
    175  N          6.9700   41.8890   15.4540 N.am  172  ASP172     -0.1959
    176  CA         8.0840   41.8230   16.4070 C.3   172  ASP172      0.1840
    177  C          7.6210   41.4890   17.8210 C.2   172  ASP172      0.2622
    178  O          7.3510   42.3610   18.6400 O.2   172  ASP172     -0.2715
    179  CB         8.9550   43.0950   16.3630 C.3   172  ASP172      0.1450
    180  CG        10.2720   42.8710   15.6270 C.2   172  ASP172      0.3671
    181  OD1       10.7230   41.7070   15.5750 O.co2 172  ASP172     -0.2456
    182  OD2       10.8650   43.8540   15.1180 O.co2 172  ASP172     -0.2456
    183  N          7.5250   40.1910   18.0690 N.am  173  PHE173     -0.1974
    184  CA         7.2820   39.6520   19.3970 C.3   173  PHE173      0.1639
    185  C          8.5560   38.9960   19.9480 C.2   173  PHE173      0.2290
    186  O          8.4930   38.1590   20.8490 O.2   173  PHE173     -0.2864
    187  CB         6.1220   38.6550   19.3270 C.3   173  PHE173      0.0560
    188  CG         4.8710   39.2550   18.7830 C.ar  173  PHE173     -0.0200
    189  CD1        4.5810   39.1830   17.4320 C.ar  173  PHE173     -0.0042
    190  CD2        4.0010   39.9370   19.6160 C.ar  173  PHE173     -0.0042
    191  CE1        3.4320   39.7560   16.9330 C.ar  173  PHE173     -0.0003
    192  CE2        2.8610   40.5030   19.1170 C.ar  173  PHE173     -0.0003
    193  CZ         2.5780   40.4140   17.7810 C.ar  173  PHE173     -0.0000
@<TRIPOS>BOND
     1   126   125    1
     2   125   124    1
     3    31    29   ar
     4   124   123    1
     5    29    30   ar
     6    29    28    1
     7   135   137   ar
     8   135   133   ar
     9     7     1    1
    10     7     6    1
    11   137   136   ar
    12    28    27    1
    13   123   122    1
    14     1     2    1
    15   133   132   ar
    16     6     5    1
    17    27    24    1
    18   122   119    1
    19    26    25    2
    20   121   120    2
    21   110   111   ar
    22   110   108   ar
    23   136   134   ar
    24     4     3    2
    25    25    24    1
    26   111   109   ar
    27   132   134   ar
    28   132   131    1
    29   120   119    1
    30   120   127   am
    31     2     5    1
    32     2     3    1
    33    24    23    1
    34   108   106   ar
    35   119   118    1
    36     3     8   am
    37    15    13    1
    38   128   127    1
    39   128   131    1
    40   128   129    1
    41   109   107   ar
    42   106   107   ar
    43   106   105    1
    44   118   114   am
    45     8     9    1
    46    13    14    1
    47    13    12    1
    48   129   130    2
    49   129   138   am
    50     9    12    1
    51     9    10    1
    52   105   102    1
    53   138   139    1
    54   114   115    2
    55   114   113    1
    56    10    11    2
    57   104   103    2
    58   139   140    1
    59    19    18    2
    60   103   102    1
    61   103   112   am
    62   102   101    1
    63   113   112    1
    64   113   116    1
    65    32    33    1
    66    18    17    1
    67    33    36    1
    68    33    34    1
    69   101    94   am
    70   140   141    2
    71   140   142   am
    72   116   117    1
    73   145   144    2
    74   142   143    1
    75    34    35    2
    76    17    16    1
    77    17    20    1
    78    21    20    1
    79    94    93    1
    80    94    95    2
    81   149   147   am
    82    88    87    2
    83   144   143    1
    84    20    22    1
    85   143   146    1
    86    93    96    1
    87    93    92    1
    88   147   148    2
    89   147   146    1
    90    87    92   am
    91    87    86    1
    92    96    97    1
    93   163   162    1
    94   163   164    2
    95    37    38    1
    96    97    98    1
    97   168   166    1
    98   165   162    1
    99   165   166    1
   100   167   166    1
   101    85    86    1
   102   162   161    1
   103    86    89    1
   104    91    89    1
   105    38    39    1
   106    38    41    1
   107    39    40    2
   108    98   100   ar
   109    98    99   ar
   110    81    80    2
   111    89    90    1
   112    80    79    1
   113    78    79    1
   114    41    42    1
   115    76    75    1
   116   153   152    2
   117    79    82    1
   118   151   154    1
   119   151   152    1
   120   151   150    1
   121    77    75    1
   122    42    43    1
   123   154   155    1
   124    43    44    1
   125    75    72    1
   126    72    73    1
   127    72    71    1
   128   174   173    1
   129    82    83    1
   130    82    84    1
   131   173   170    1
   132    73    74    2
   133    44    45    1
   134    53    51    1
   135   155   156    1
   136   156   157    1
   137   170   169    1
   138   170   171    1
   139    52    51    1
   140    51    50    1
   141   182   180   ar
   142   157   158    2
   143   175   171   am
   144   175   176    1
   145   159   158    1
   146   181   180   ar
   147   180   179    1
   148   171   172    2
   149   158   160    1
   150    50    47    1
   151    69    68    1
   152    61    60   ar
   153   179   176    1
   154    62    60   ar
   155   176   177    1
   156    60    59    1
   157   191   189   ar
   158   191   193   ar
   159    70    68    1
   160    47    48    1
   161    47    46    1
   162   189   188   ar
   163    68    67    1
   164    49    48    2
   165   193   192   ar
   166   177   183   am
   167   177   178    2
   168    67    64    1
   169   183   184    1
   170    58    59    1
   171    58    55    1
   172   188   187    1
   173   188   190   ar
   174    56    57    2
   175    56    55    1
   176   192   190   ar
   177    64    65    1
   178    64    63    1
   179   187   184    1
   180    55    54    1
   181   184   185    1
   182    66    65    2
   183   185   186    2
