@<TRIPOS>MOLECULE
tmp/3cjoA01.pdb
 156 149 0 0 0
SMALL
GASTEIGER

@<TRIPOS>ATOM
      1  N         20.1870    8.7470  106.6050 N.3    99  GLU99      -0.1231
      2  CA        19.9020    9.9260  107.3920 C.3    99  GLU99       0.1699
      3  C         18.7780    9.6820  108.4250 C.2    99  GLU99       0.2593
      4  O         18.7850   10.2240  109.5380 O.2    99  GLU99      -0.2718
      5  CB        19.6150   11.1380  106.4810 C.3    99  GLU99       0.0402
      6  CG        20.2980   11.0910  105.1010 C.3    99  GLU99       0.1161
      7  CD        19.9980   12.3030  104.2710 C.2    99  GLU99       0.3649
      8  OE1       18.8520   12.8090  104.3360 O.co2  99  GLU99      -0.2457
      9  OE2       20.9300   12.8050  103.6110 O.co2  99  GLU99      -0.2457
     10  N         17.8580    8.8000  108.0580 N.am  100  GLY100     -0.1942
     11  CA        16.7120    8.4490  108.8620 C.3   100  GLY100      0.2014
     12  C         15.6490    9.5160  108.7210 C.2   100  GLY100      0.2639
     13  O         15.5440   10.2150  107.7070 O.2   100  GLY100     -0.2714
     14  N         14.8970    9.7040  109.7890 N.am  101  GLU101     -0.1963
     15  CA        13.7990   10.6390  109.7650 C.3   101  GLU101      0.1733
     16  C         13.5780   11.1570  111.1910 C.2   101  GLU101      0.2616
     17  O         14.3970   10.8630  112.0760 O.2   101  GLU101     -0.2715
     18  CB        12.5600    9.8680  109.2640 C.3   101  GLU101      0.0429
     19  CG        12.4820    9.7730  107.7430 C.3   101  GLU101      0.1163
     20  CD        11.3490    8.8820  107.2500 C.2   101  GLU101      0.3649
     21  OE1       10.4910    8.5030  108.0620 O.co2 101  GLU101     -0.2457
     22  OE2       11.3500    8.5200  106.0540 O.co2 101  GLU101     -0.2457
     23  N         12.4790   11.8930  111.4130 N.am  102  ARG102     -0.1977
     24  CA        12.1160   12.3120  112.7790 C.3   102  ARG102      0.1597
     25  C         10.8220   11.6350  113.2200 C.2   102  ARG102      0.2287
     26  O          9.8630   11.5180  112.4630 O.2   102  ARG102     -0.2864
     27  CB        11.9630   13.8540  112.9630 C.3   102  ARG102      0.0334
     28  CG        13.1150   14.7250  112.4410 C.3   102  ARG102      0.0492
     29  CD        14.4240   14.4210  113.1870 C.3   102  ARG102      0.2205
     30  NE        14.2410   14.2190  114.6180 N.pl3 102  ARG102     -0.0865
     31  CZ        14.3930   15.1580  115.5500 C.cat 102  ARG102      0.5346
     32  NH1       14.7870   16.3770  115.2450 N.pl3 102  ARG102      0.1354
     33  NH2       14.2080   14.8590  116.8080 N.pl3 102  ARG102      0.1354
     34  N         16.9340   14.9660  118.8620 N.3   110  TRP110     -0.1241
     35  CA        17.6560   14.3600  117.7680 C.3   110  TRP110      0.1605
     36  C         18.6050   13.2400  118.1910 C.2   110  TRP110      0.2264
     37  O         18.8650   12.3100  117.4180 O.2   110  TRP110     -0.2867
     38  CB        18.3310   15.4160  116.9080 C.3   110  TRP110      0.0550
     39  CG        19.5790   15.9470  117.4990 C.ar  110  TRP110      0.0003
     40  CD1       19.7060   17.0900  118.1930 C.ar  110  TRP110      0.0946
     41  CD2       20.9070   15.3930  117.3780 C.ar  110  TRP110      0.0152
     42  NE1       21.0190   17.2550  118.5870 N.ar  110  TRP110     -0.2442
     43  CE2       21.7730   16.2330  118.0940 C.ar  110  TRP110      0.0810
     44  CE3       21.4460   14.2880  116.7050 C.ar  110  TRP110      0.0012
     45  CZ2       23.1300   16.0350  118.1300 C.ar  110  TRP110      0.0191
     46  CZ3       22.7900   14.0340  116.8390 C.ar  110  TRP110      0.0001
     47  CH2       23.6200   14.9120  117.5170 C.ar  110  TRP110      0.0015
     48  N         15.9910   10.1870  118.8900 N.3   113  ASP113     -0.1239
     49  CA        15.0800    9.7070  117.8770 C.3   113  ASP113      0.1674
     50  C         15.4270    8.3140  117.3780 C.2   113  ASP113      0.2266
     51  O         16.4810    8.0960  116.7430 O.2   113  ASP113     -0.2867
     52  CB        14.8830   10.6960  116.7180 C.3   113  ASP113      0.1410
     53  CG        13.4950   10.5990  116.1310 C.2   113  ASP113      0.3668
     54  OD1       12.9090   11.6420  115.8210 O.co2 113  ASP113     -0.2456
     55  OD2       12.9380    9.4730  116.0690 O.co2 113  ASP113     -0.2456
     56  N         16.3640    8.3030  113.6460 N.3   116  ALA116     -0.1245
     57  CA        17.6860    8.7270  113.1650 C.3   116  ALA116      0.1562
     58  C         18.4110    7.5840  112.3940 C.2   116  ALA116      0.2260
     59  O         18.3150    6.4210  112.7710 O.2   116  ALA116     -0.2867
     60  CB        18.5250    9.1880  114.3320 C.3   116  ALA116      0.0290
     61  N         24.0620    8.6590  109.3820 N.3   119  ILE119     -0.1231
     62  CA        24.7810    9.9350  109.4920 C.3   119  ILE119      0.1678
     63  C         24.7210   10.6670  110.8320 C.2   119  ILE119      0.2434
     64  O         25.7320   11.1610  111.3210 O.2   119  ILE119     -0.2733
     65  CB        24.5480   10.8840  108.3030 C.3   119  ILE119      0.0265
     66  CG1       25.0800   10.2670  107.0150 C.3   119  ILE119      0.0019
     67  CG2       25.3000   12.2070  108.5390 C.3   119  ILE119      0.0020
     68  CD1       24.8060   11.1390  105.7810 C.3   119  ILE119      0.0001
     69  N         23.5200   10.8070  111.3980 N.am  120  PRO120     -0.2729
     70  CA        23.2670   11.4680  112.6860 C.3   120  PRO120      0.1401
     71  C         23.7670   10.6020  113.8310 C.2   120  PRO120      0.2269
     72  O         24.4120   11.0810  114.7520 O.2   120  PRO120     -0.2865
     73  CB        21.7340   11.5500  112.7430 C.3   120  PRO120      0.0296
     74  CG        21.2410   10.5210  111.6840 C.3   120  PRO120      0.0237
     75  CD        22.2880   10.6550  110.6060 C.3   120  PRO120      0.0939
     76  N         29.6840   17.8640  102.4750 N.3   143  LEU143     -0.1245
     77  CA        28.5290   17.2370  101.8660 C.3   143  LEU143      0.1561
     78  C         28.5550   17.6220  100.4060 C.2   143  LEU143      0.2260
     79  O         28.2760   18.7700  100.0230 O.2   143  LEU143     -0.2867
     80  CB        27.2350   17.6660  102.5660 C.3   143  LEU143      0.0270
     81  CG        25.9540   16.9580  102.0880 C.3   143  LEU143      0.0019
     82  CD1       26.1690   15.5890  101.4310 C.3   143  LEU143      0.0001
     83  CD2       24.9150   16.8610  103.1790 C.3   143  LEU143      0.0001
     84  N         26.6330   22.4250  102.0680 N.3   155  LEU155     -0.1245
     85  CA        26.8760   22.9300  103.4270 C.3   155  LEU155      0.1561
     86  C         27.4100   24.3460  103.5110 C.2   155  LEU155      0.2260
     87  O         27.4770   24.9150  104.6080 O.2   155  LEU155     -0.2867
     88  CB        27.7780   21.9800  104.2620 C.3   155  LEU155      0.0270
     89  CG        27.2950   20.5680  104.6320 C.3   155  LEU155      0.0019
     90  CD1       28.3030   19.8270  105.4550 C.3   155  LEU155      0.0001
     91  CD2       25.9380   20.5730  105.3180 C.3   155  LEU155      0.0001
     92  N         23.3990   18.8140  114.7010 N.3   194  TYR194     -0.1241
     93  CA        22.0450   19.1110  114.2940 C.3   194  TYR194      0.1605
     94  C         21.8770   20.2930  113.3500 C.2   194  TYR194      0.2264
     95  O         21.2300   20.1540  112.3080 O.2   194  TYR194     -0.2867
     96  CB        21.1260   19.2500  115.5070 C.3   194  TYR194      0.0534
     97  CG        19.6660   19.1290  115.1400 C.ar  194  TYR194     -0.0201
     98  CD1       19.1990   18.0010  114.4720 C.ar  194  TYR194     -0.0009
     99  CD2       18.7730   20.1810  115.3710 C.ar  194  TYR194     -0.0009
    100  CE1       17.8780   17.8650  114.1490 C.ar  194  TYR194      0.0417
    101  CE2       17.4370   20.0610  115.0380 C.ar  194  TYR194      0.0417
    102  CZ        16.9890   18.8860  114.4270 C.ar  194  TYR194      0.1957
    103  OH        15.6670   18.7430  114.0370 O.3   194  TYR194     -0.2866
    104  N         23.2270   19.7110  109.8350 N.3   197  LEU197     -0.1231
    105  CA        22.2800   18.9260  109.0530 C.3   197  LEU197      0.1693
    106  C         21.0040   19.7160  108.7210 C.2   197  LEU197      0.2591
    107  O         20.3990   19.5400  107.6630 O.2   197  LEU197     -0.2718
    108  CB        21.9310   17.6640  109.7950 C.3   197  LEU197      0.0284
    109  CG        23.1070   16.8550  110.2950 C.3   197  LEU197      0.0019
    110  CD1       22.5260   15.7940  111.2060 C.3   197  LEU197      0.0001
    111  CD2       23.8450   16.2240  109.1150 C.3   197  LEU197      0.0001
    112  N         20.6550   20.6470  109.5970 N.am  198  GLU198     -0.1979
    113  CA        19.5330   21.5740  109.3930 C.3   198  GLU198      0.1602
    114  C         19.8170   22.4490  108.1670 C.2   198  GLU198      0.2287
    115  O         18.9760   22.6180  107.2800 O.2   198  GLU198     -0.2864
    116  CB        19.3610   22.4460  110.6450 C.3   198  GLU198      0.0415
    117  CG        18.7890   21.6850  111.8750 C.3   198  GLU198      0.1163
    118  CD        17.8750   22.5640  112.7610 C.2   198  GLU198      0.3649
    119  OE1       16.9560   23.2390  112.2350 O.co2 198  GLU198     -0.2457
    120  OE2       18.0490   22.5520  113.9980 O.co2 198  GLU198     -0.2457
    121  N         22.1480   21.7640  105.7380 N.3   200  GLY200     -0.1210
    122  CA        22.2280   20.9210  104.5500 C.3   200  GLY200      0.1956
    123  C         20.8290   20.6180  104.0110 C.2   200  GLY200      0.2612
    124  O         20.5840   20.6710  102.8120 O.2   200  GLY200     -0.2717
    125  N         19.9110   20.3090  104.9230 N.am  201  ALA201     -0.1965
    126  CA        18.5330   19.9900  104.5860 C.3   201  ALA201      0.1728
    127  C         17.9140   21.1570  103.8720 C.2   201  ALA201      0.2616
    128  O         17.2800   20.9830  102.8260 O.2   201  ALA201     -0.2715
    129  CB        17.7400   19.6460  105.8540 C.3   201  ALA201      0.0334
    130  N         18.1180   22.3460  104.4360 N.am  202  ALA202     -0.1977
    131  CA        17.5900   23.6000  103.8820 C.3   202  ALA202      0.1597
    132  C         18.0370   23.8310  102.4560 C.2   202  ALA202      0.2287
    133  O         17.2140   24.1200  101.6000 O.2   202  ALA202     -0.2864
    134  CB        18.0050   24.7840  104.7490 C.3   202  ALA202      0.0319
    135  N         19.3070   21.6000  100.4610 N.3   204  ARG204     -0.1245
    136  CA        18.7880   20.5240   99.6520 C.3   204  ARG204      0.1563
    137  C         17.4430   20.8940   98.9890 C.2   204  ARG204      0.2260
    138  O         17.1430   20.4920   97.8630 O.2   204  ARG204     -0.2867
    139  CB        18.6390   19.2810  100.5160 C.3   204  ARG204      0.0307
    140  CG        19.8080   18.4220  100.3260 C.3   204  ARG204      0.0489
    141  CD        19.5850   17.0680  100.7970 C.3   204  ARG204      0.2205
    142  NE        20.8240   16.3310  100.6950 N.pl3 204  ARG204     -0.0865
    143  CZ        21.1340   15.3540  101.5190 C.cat 204  ARG204      0.5346
    144  NH1       20.2750   15.0590  102.4730 N.pl3 204  ARG204      0.1354
    145  NH2       22.2760   14.6830  101.3820 N.pl3 204  ARG204      0.1354
    146  N         28.5730   12.4880  102.0830 N.3   222  PHE222     -0.1241
    147  CA        28.7130   13.1920  103.3310 C.3   222  PHE222      0.1605
    148  C         29.9630   12.6350  104.0010 C.2   222  PHE222      0.2264
    149  O         30.0290   11.4440  104.2740 O.2   222  PHE222     -0.2867
    150  CB        27.4820   12.9230  104.1880 C.3   222  PHE222      0.0534
    151  CG        27.4370   13.7370  105.4100 C.ar  222  PHE222     -0.0203
    152  CD1       28.2910   13.4580  106.4650 C.ar  222  PHE222     -0.0042
    153  CD2       26.6070   14.8210  105.4910 C.ar  222  PHE222     -0.0042
    154  CE1       28.2740   14.2060  107.6130 C.ar  222  PHE222     -0.0003
    155  CE2       26.5790   15.5780  106.6360 C.ar  222  PHE222     -0.0003
    156  CZ        27.4120   15.2580  107.7070 C.ar  222  PHE222     -0.0000
@<TRIPOS>BOND
     1   138   137    2
     2   137   136    1
     3   136   135    1
     4   136   139    1
     5    79    78    2
     6   140   139    1
     7   140   141    1
     8    78    77    1
     9   142   141    1
    10   142   143    2
    11   145   143    1
    12    82    81    1
    13   143   144    1
    14   133   132    2
    15    77    76    1
    16    77    80    1
    17    84    85    1
    18   146   147    1
    19    81    80    1
    20    81    83    1
    21   132   131    1
    22   124   123    2
    23   128   127    2
    24   147   148    1
    25   147   150    1
    26    85    86    1
    27    85    88    1
    28    86    87    2
    29     9     7   ar
    30   127   130   am
    31   127   126    1
    32   131   130    1
    33   131   134    1
    34   148   149    2
    35   123   122    1
    36   123   125   am
    37   150   151    1
    38    88    89    1
    39     7     8   ar
    40     7     6    1
    41   122   121    1
    42   126   125    1
    43   126   129    1
    44    89    91    1
    45    89    90    1
    46     6     5    1
    47   151   153   ar
    48   151   152   ar
    49   153   155   ar
    50    68    66    1
    51    22    20   ar
    52   152   154   ar
    53     5     2    1
    54     1     2    1
    55   155   156   ar
    56    66    65    1
    57    20    19    1
    58    20    21   ar
    59   115   114    2
    60     2     3    1
    61   154   156   ar
    62   107   106    2
    63    13    12    2
    64    19    18    1
    65    10     3   am
    66    10    11    1
    67   114   113    1
    68    65    67    1
    69    65    62    1
    70     3     4    2
    71    12    11    1
    72    12    14   am
    73   106   105    1
    74   106   112   am
    75   105   108    1
    76   105   104    1
    77   111   109    1
    78    18    15    1
    79    61    62    1
    80   113   112    1
    81   113   116    1
    82    62    63    1
    83    15    14    1
    84    15    16    1
    85   108   109    1
    86   109   110    1
    87    75    69    1
    88    75    74    1
    89   116   117    1
    90    63    64    2
    91    63    69   am
    92    16    23   am
    93    16    17    2
    94    69    70    1
    95    23    24    1
    96    74    73    1
    97   117   118    1
    98   119   118   ar
    99    95    94    2
   100    58    59    2
   101    58    57    1
   102    28    27    1
   103    28    29    1
   104    26    25    2
   105    70    73    1
   106    70    71    1
   107   118   120   ar
   108    24    27    1
   109    24    25    1
   110    57    56    1
   111    57    60    1
   112    29    30    1
   113    94    93    1
   114    71    72    2
   115   103   102    1
   116   100   102   ar
   117   100    98   ar
   118    93    92    1
   119    93    96    1
   120   102   101   ar
   121    98    97   ar
   122    30    31    2
   123   101    99   ar
   124    97    99   ar
   125    97    96    1
   126    32    31    1
   127    31    33    1
   128    54    53   ar
   129    55    53   ar
   130    53    52    1
   131    44    46   ar
   132    44    41   ar
   133    52    49    1
   134    51    50    2
   135    46    47   ar
   136    38    39    1
   137    38    35    1
   138    50    49    1
   139    41    39   ar
   140    41    43   ar
   141    37    36    2
   142    39    40   ar
   143    47    45   ar
   144    35    36    1
   145    35    34    1
   146    49    48    1
   147    43    45   ar
   148    43    42   ar
   149    40    42   ar
