@<TRIPOS>MOLECULE
tmp/3cjtM01.pdb
 92 88 0 0 0
SMALL
GASTEIGER

@<TRIPOS>ATOM
      1  N        -11.1770  -25.9360  160.1790 N.3    99  PHE99      -0.1241
      2  CA       -11.5640  -27.1410  159.4290 C.3    99  PHE99       0.1605
      3  C        -10.6380  -27.3240  158.2270 C.2    99  PHE99       0.2264
      4  O        -10.2850  -26.3450  157.5590 O.2    99  PHE99      -0.2867
      5  CB       -13.0290  -27.0560  158.9850 C.3    99  PHE99       0.0534
      6  CG       -13.6510  -28.3910  158.6770 C.ar   99  PHE99      -0.0203
      7  CD1      -13.5310  -28.9560  157.4250 C.ar   99  PHE99      -0.0042
      8  CD2      -14.3750  -29.0810  159.6550 C.ar   99  PHE99      -0.0042
      9  CE1      -14.1180  -30.1960  157.1320 C.ar   99  PHE99      -0.0003
     10  CE2      -14.9500  -30.3190  159.3770 C.ar   99  PHE99      -0.0003
     11  CZ       -14.8420  -30.8630  158.1060 C.ar   99  PHE99      -0.0000
     12  N        -14.6100  -35.5180  153.2920 N.3   106  THR106     -0.1218
     13  CA       -14.7930  -34.4520  152.3010 C.3   106  THR106      0.1862
     14  C        -13.4600  -33.8060  151.8930 C.2   106  THR106      0.2287
     15  O        -13.1980  -33.6480  150.7040 O.2   106  THR106     -0.2866
     16  CB       -15.7340  -33.3580  152.8030 C.3   106  THR106      0.1770
     17  OG1      -15.3000  -32.9270  154.0950 O.3   106  THR106     -0.2211
     18  CG2      -17.1420  -33.8760  152.9060 C.3   106  THR106      0.0375
     19  N        -15.3570  -27.2300  149.2210 N.3   191  ASN191     -0.1225
     20  CA       -15.8650  -28.1270  150.2150 C.3   191  ASN191      0.1785
     21  C        -16.7760  -27.3210  151.1380 C.2   191  ASN191      0.2597
     22  O        -16.3360  -26.8020  152.1680 O.2   191  ASN191     -0.2718
     23  CB       -14.7070  -28.7570  150.9830 C.3   191  ASN191      0.1169
     24  CG       -15.1660  -29.7100  152.0400 C.2   191  ASN191      0.2627
     25  OD1      -16.3530  -30.0130  152.1450 O.2   191  ASN191     -0.2716
     26  ND2      -14.2390  -30.1670  152.8610 N.am  191  ASN191     -0.0877
     27  N        -18.0360  -27.1910  150.7380 N.am  192  LEU192     -0.1966
     28  CA       -18.9820  -26.3850  151.4770 C.3   192  LEU192      0.1728
     29  C        -20.0990  -27.2610  151.9330 C.2   192  LEU192      0.2616
     30  O        -19.8750  -28.2000  152.6960 O.2   192  LEU192     -0.2715
     31  CB       -19.4840  -25.2090  150.6240 C.3   192  LEU192      0.0311
     32  CG       -18.3440  -24.2640  150.2400 C.3   192  LEU192      0.0022
     33  CD1      -18.7610  -23.2880  149.1410 C.3   192  LEU192      0.0001
     34  CD2      -17.8580  -23.5160  151.4540 C.3   192  LEU192      0.0001
     35  N        -21.3150  -26.9580  151.4950 N.am  193  TYR193     -0.1974
     36  CA       -22.4490  -27.8510  151.7380 C.3   193  TYR193      0.1639
     37  C        -23.4130  -27.6430  150.5870 C.2   193  TYR193      0.2290
     38  O        -23.3250  -26.6160  149.9140 O.2   193  TYR193     -0.2864
     39  CB       -23.1150  -27.5700  153.1010 C.3   193  TYR193      0.0560
     40  CG       -23.3620  -26.0940  153.3830 C.ar  193  TYR193     -0.0198
     41  CD1      -24.6140  -25.5200  153.1640 C.ar  193  TYR193     -0.0009
     42  CD2      -22.3350  -25.2780  153.8670 C.ar  193  TYR193     -0.0009
     43  CE1      -24.8380  -24.1620  153.4210 C.ar  193  TYR193      0.0417
     44  CE2      -22.5500  -23.9350  154.1370 C.ar  193  TYR193      0.0417
     45  CZ       -23.8080  -23.3760  153.9160 C.ar  193  TYR193      0.1957
     46  OH       -24.0040  -22.0430  154.1770 O.3   193  TYR193     -0.2866
     47  N        -26.5790  -26.8230  149.9220 N.3   195  GLU195     -0.1245
     48  CA       -27.4320  -25.6770  149.7570 C.3   195  GLU195      0.1567
     49  C        -26.6280  -24.4830  149.2800 C.2   195  GLU195      0.2260
     50  O        -27.0900  -23.6960  148.4340 O.2   195  GLU195     -0.2867
     51  CB       -28.1420  -25.3870  151.0770 C.3   195  GLU195      0.0388
     52  CG       -29.1870  -26.4730  151.4890 C.3   195  GLU195      0.1160
     53  CD       -28.6050  -27.7770  152.0570 C.2   195  GLU195      0.3649
     54  OE1      -27.3780  -27.8710  152.3170 O.co2 195  GLU195     -0.2457
     55  OE2      -29.4020  -28.7300  152.2560 O.co2 195  GLU195     -0.2457
     56  N        -18.4440  -31.5910  150.4010 N.3   218  GLY218     -0.1225
     57  CA       -19.2030  -31.2370  151.6250 C.3   218  GLY218      0.1811
     58  C        -20.6670  -31.5900  151.4470 C.2   218  GLY218      0.2280
     59  O        -21.5520  -31.1720  152.2300 O.2   218  GLY218     -0.2866
     60  N        -23.6460  -34.0190  151.4600 N.3   220  LEU220     -0.1245
     61  CA       -24.3050  -35.2270  151.9380 C.3   220  LEU220      0.1561
     62  C        -24.9940  -35.9170  150.7780 C.2   220  LEU220      0.2260
     63  O        -25.7000  -35.2760  149.9730 O.2   220  LEU220     -0.2867
     64  CB       -25.3430  -34.9010  153.0220 C.3   220  LEU220      0.0270
     65  CG       -24.7680  -34.4010  154.3440 C.3   220  LEU220      0.0019
     66  CD1      -25.8990  -33.8190  155.2320 C.3   220  LEU220      0.0001
     67  CD2      -23.9670  -35.4840  155.0690 C.3   220  LEU220      0.0001
     68  N        -28.3800  -34.9530  149.8330 N.3   223  ARG223     -0.1245
     69  CA       -28.5180  -33.5850  149.3740 C.3   223  ARG223      0.1563
     70  C        -27.9780  -33.3760  147.9600 C.2   223  ARG223      0.2260
     71  O        -28.1350  -32.2880  147.3980 O.2   223  ARG223     -0.2867
     72  CB       -27.7880  -32.6490  150.3210 C.3   223  ARG223      0.0307
     73  CG       -28.6960  -31.9060  151.2440 C.3   223  ARG223      0.0489
     74  CD       -29.1270  -32.7570  152.3560 C.3   223  ARG223      0.2205
     75  NE       -30.3540  -32.2640  152.9600 N.pl3 223  ARG223     -0.0865
     76  CZ       -30.4060  -31.5800  154.1020 C.cat 223  ARG223      0.5346
     77  NH1      -29.2830  -31.2700  154.7740 N.pl3 223  ARG223      0.1354
     78  NH2      -31.5970  -31.2090  154.5790 N.pl3 223  ARG223      0.1354
     79  N        -20.7660  -38.9930  152.1930 N.3   247  TRP247     -0.1241
     80  CA       -20.3500  -37.8020  151.4680 C.3   247  TRP247      0.1605
     81  C        -20.0900  -38.0520  150.0010 C.2   247  TRP247      0.2264
     82  O        -19.6270  -39.1300  149.6300 O.2   247  TRP247     -0.2867
     83  CB       -19.0750  -37.2380  152.0850 C.3   247  TRP247      0.0550
     84  CG       -19.1790  -36.9170  153.5300 C.ar  247  TRP247      0.0003
     85  CD1      -18.7130  -37.6630  154.5640 C.ar  247  TRP247      0.0946
     86  CD2      -19.7730  -35.7440  154.1070 C.ar  247  TRP247      0.0152
     87  NE1      -18.9700  -37.0290  155.7540 N.ar  247  TRP247     -0.2442
     88  CE2      -19.6200  -35.8480  155.5030 C.ar  247  TRP247      0.0810
     89  CE3      -20.3850  -34.5980  153.5730 C.ar  247  TRP247      0.0012
     90  CZ2      -20.0890  -34.8560  156.3870 C.ar  247  TRP247      0.0191
     91  CZ3      -20.8440  -33.6130  154.4420 C.ar  247  TRP247      0.0001
     92  CH2      -20.7010  -33.7480  155.8330 C.ar  247  TRP247      0.0015
@<TRIPOS>BOND
     1    71    70    2
     2    70    69    1
     3    50    49    2
     4    33    32    1
     5    19    20    1
     6    49    48    1
     7    69    68    1
     8    69    72    1
     9    82    81    2
    10    48    47    1
    11    48    51    1
    12    38    37    2
    13    63    62    2
    14    81    80    1
    15    20    23    1
    16    20    21    1
    17    32    31    1
    18    32    34    1
    19    72    73    1
    20    56    57    1
    21    37    36    1
    22    31    28    1
    23    15    14    2
    24    27    21   am
    25    27    28    1
    26    62    61    1
    27    23    24    1
    28    51    52    1
    29    21    22    2
    30    73    74    1
    31    58    57    1
    32    58    59    2
    33    60    61    1
    34    80    83    1
    35    80    79    1
    36    28    29    1
    37    52    53    1
    38    35    36    1
    39    35    29   am
    40    36    39    1
    41    14    13    1
    42    29    30    2
    43    61    64    1
    44    24    25    2
    45    24    26   am
    46    53    55   ar
    47    53    54   ar
    48    83    84    1
    49    13    16    1
    50    13    12    1
    51    74    75    1
    52    16    18    1
    53    16    17    1
    54    75    76    2
    55    64    65    1
    56    39    40    1
    57    41    40   ar
    58    41    43   ar
    59    40    42   ar
    60    43    45   ar
    61    84    86   ar
    62    84    85   ar
    63    89    86   ar
    64    89    91   ar
    65    42    44   ar
    66    45    44   ar
    67    45    46    1
    68    76    78    1
    69    76    77    1
    70    86    88   ar
    71    65    67    1
    72    65    66    1
    73    91    92   ar
    74    85    87   ar
    75    88    87   ar
    76    88    90   ar
    77    92    90   ar
    78     9     7   ar
    79     9    11   ar
    80     7     6   ar
    81     4     3    2
    82    11    10   ar
    83     3     2    1
    84     6     5    1
    85     6     8   ar
    86     5     2    1
    87    10     8   ar
    88     2     1    1
