@<TRIPOS>MOLECULE
tmp/3cjtM00.pdb
 153 145 0 0 0
SMALL
GASTEIGER

@<TRIPOS>ATOM
      1  N        -11.1770  -25.9360  160.1790 N.3    99  PHE99      -0.1227
      2  CA       -11.5640  -27.1410  159.4290 C.3    99  PHE99       0.1736
      3  C        -10.6380  -27.3240  158.2270 C.2    99  PHE99       0.2596
      4  O        -10.2850  -26.3450  157.5590 O.2    99  PHE99      -0.2718
      5  CB       -13.0290  -27.0560  158.9850 C.3    99  PHE99       0.0547
      6  CG       -13.6510  -28.3910  158.6770 C.ar   99  PHE99      -0.0202
      7  CD1      -13.5310  -28.9560  157.4250 C.ar   99  PHE99      -0.0042
      8  CD2      -14.3750  -29.0810  159.6550 C.ar   99  PHE99      -0.0042
      9  CE1      -14.1180  -30.1960  157.1320 C.ar   99  PHE99      -0.0003
     10  CE2      -14.9500  -30.3190  159.3770 C.ar   99  PHE99      -0.0003
     11  CZ       -14.8420  -30.8630  158.1060 C.ar   99  PHE99      -0.0000
     12  N        -10.2370  -28.5690  157.9810 N.am  100  GLY100     -0.1957
     13  CA        -9.2370  -28.8920  156.9640 C.3   100  GLY100      0.1869
     14  C         -7.9340  -29.4910  157.5150 C.2   100  GLY100      0.2309
     15  O         -6.8420  -29.3020  156.9510 O.2   100  GLY100     -0.2863
     16  N        -12.6200  -33.4440  152.8640 N.3   107  THR107     -0.1218
     17  CA       -11.3060  -32.8520  152.5530 C.3   107  THR107      0.1862
     18  C        -10.4570  -33.7470  151.6470 C.2   107  THR107      0.2287
     19  O         -9.8240  -33.2680  150.7060 O.2   107  THR107     -0.2866
     20  CB       -10.4950  -32.5110  153.8210 C.3   107  THR107      0.1770
     21  OG1      -11.3010  -31.7230  154.7080 O.3   107  THR107     -0.2211
     22  CG2       -9.2330  -31.7410  153.4560 C.3   107  THR107      0.0375
     23  N         -9.8580  -21.8470  145.8000 N.3   126  ASP126     -0.1225
     24  CA       -10.2600  -22.6680  146.9280 C.3   126  ASP126      0.1805
     25  C        -11.3270  -21.8880  147.7220 C.2   126  ASP126      0.2598
     26  O        -10.9920  -21.0380  148.5420 O.2   126  ASP126     -0.2718
     27  CB        -9.0330  -22.9770  147.8120 C.3   126  ASP126      0.1424
     28  CG        -9.3610  -23.8670  149.0270 C.2   126  ASP126      0.3668
     29  OD1      -10.5150  -24.3670  149.1580 O.co2 126  ASP126     -0.2456
     30  OD2       -8.4430  -24.0510  149.8630 O.co2 126  ASP126     -0.2456
     31  N        -12.6020  -22.1610  147.4500 N.am  127  LEU127     -0.1966
     32  CA       -13.7020  -21.4340  148.1010 C.3   127  LEU127      0.1728
     33  C        -14.0610  -22.0200  149.4790 C.2   127  LEU127      0.2617
     34  O        -14.5770  -23.1270  149.5620 O.2   127  LEU127     -0.2715
     35  CB       -14.9530  -21.4050  147.2050 C.3   127  LEU127      0.0311
     36  CG       -16.1930  -20.6360  147.7010 C.3   127  LEU127      0.0022
     37  CD1      -15.8620  -19.1490  147.9670 C.3   127  LEU127      0.0001
     38  CD2      -17.3350  -20.7360  146.6780 C.3   127  LEU127      0.0001
     39  N        -13.8310  -21.2560  150.5460 N.am  128  GLY128     -0.1940
     40  CA       -14.0060  -21.7580  151.9180 C.3   128  GLY128      0.2014
     41  C        -12.7650  -22.5520  152.2850 C.2   128  GLY128      0.2640
     42  O        -12.8310  -23.7750  152.4990 O.2   128  GLY128     -0.2714
     43  N        -11.6340  -21.8490  152.3250 N.am  129  THR129     -0.1936
     44  CA       -10.3180  -22.4410  152.4390 C.3   129  THR129      0.2028
     45  C        -10.0010  -23.0580  153.8310 C.2   129  THR129      0.2642
     46  O         -9.2860  -24.0630  153.9230 O.2   129  THR129     -0.2714
     47  CB        -9.2310  -21.4200  151.9670 C.3   129  THR129      0.1808
     48  OG1       -8.0250  -22.1020  151.6620 O.3   129  THR129     -0.2208
     49  CG2       -8.9350  -20.3630  153.0120 C.3   129  THR129      0.0379
     50  N        -10.5220  -22.4630  154.9040 N.am  130  GLY130     -0.1954
     51  CA       -10.3420  -23.0310  156.2290 C.3   130  GLY130      0.1869
     52  C         -8.8680  -23.0430  156.5710 C.2   130  GLY130      0.2309
     53  O         -8.2190  -21.9820  156.6000 O.2   130  GLY130     -0.2863
     54  N         -5.5930  -25.9990  153.3400 N.3   133  VAL133     -0.1231
     55  CA        -5.0930  -27.3100  152.8820 C.3   133  VAL133      0.1692
     56  C         -5.2330  -27.5370  151.3720 C.2   133  VAL133      0.2591
     57  O         -4.2750  -27.9550  150.7040 O.2   133  VAL133     -0.2718
     58  CB        -5.7180  -28.5190  153.7240 C.3   133  VAL133      0.0266
     59  CG1       -7.2680  -28.5160  153.7310 C.3   133  VAL133      0.0020
     60  CG2       -5.1240  -29.8890  153.2990 C.3   133  VAL133      0.0020
     61  N         -6.4060  -27.2380  150.8340 N.am  134  LEU134     -0.1980
     62  CA        -6.6680  -27.4340  149.4070 C.3   134  LEU134      0.1596
     63  C         -5.9210  -26.4590  148.5180 C.2   134  LEU134      0.2287
     64  O         -5.4080  -26.8510  147.4490 O.2   134  LEU134     -0.2864
     65  CB        -8.1610  -27.3330  149.1080 C.3   134  LEU134      0.0297
     66  CG        -9.1210  -28.2580  149.8480 C.3   134  LEU134      0.0022
     67  CD1      -10.4790  -28.0620  149.1950 C.3   134  LEU134      0.0001
     68  CD2       -8.6420  -29.7350  149.7770 C.3   134  LEU134      0.0001
     69  N        -12.1980  -17.1790  152.4940 N.3   149  ASP149     -0.1225
     70  CA       -13.0620  -17.6360  153.5760 C.3   149  ASP149      0.1805
     71  C        -13.7600  -16.4240  154.1980 C.2   149  ASP149      0.2598
     72  O        -13.1190  -15.3770  154.3690 O.2   149  ASP149     -0.2718
     73  CB       -12.2230  -18.3980  154.6280 C.3   149  ASP149      0.1424
     74  CG       -13.0220  -19.4540  155.3530 C.2   149  ASP149      0.3668
     75  OD1      -12.8020  -20.6610  155.1030 O.co2 149  ASP149     -0.2456
     76  OD2      -13.8940  -19.0790  156.1630 O.co2 149  ASP149     -0.2456
     77  N        -15.0550  -16.5630  154.5200 N.am  150  ILE150     -0.1966
     78  CA       -15.8340  -15.5140  155.2030 C.3   150  ILE150      0.1727
     79  C        -15.4420  -15.3420  156.6650 C.2   150  ILE150      0.2616
     80  O        -15.6760  -14.2780  157.2670 O.2   150  ILE150     -0.2715
     81  CB       -17.3610  -15.7670  155.1590 C.3   150  ILE150      0.0290
     82  CG1      -17.6840  -17.2080  155.6010 C.3   150  ILE150      0.0022
     83  CG2      -17.9430  -15.3940  153.7750 C.3   150  ILE150      0.0023
     84  CD1      -19.1530  -17.5230  155.6770 C.3   150  ILE150      0.0001
     85  N        -14.8630  -16.4000  157.2290 N.am  151  ASP151     -0.1971
     86  CA       -14.4280  -16.4290  158.6180 C.3   151  ASP151      0.1709
     87  C        -12.9840  -15.9040  158.6970 C.2   151  ASP151      0.2293
     88  O        -12.0580  -16.5740  158.2250 O.2   151  ASP151     -0.2864
     89  CB       -14.5290  -17.8670  159.1290 C.3   151  ASP151      0.1436
     90  CG       -14.1180  -18.0150  160.5660 C.2   151  ASP151      0.3671
     91  OD1      -13.7510  -17.0100  161.2220 O.co2 151  ASP151     -0.2456
     92  OD2      -14.1670  -19.1630  161.0510 O.co2 151  ASP151     -0.2456
     93  N         -9.6840  -17.9520  160.4250 N.3   154  VAL154     -0.1245
     94  CA        -8.9370  -19.0510  159.7940 C.3   154  VAL154      0.1561
     95  C         -7.7900  -18.5870  158.8870 C.2   154  VAL154      0.2260
     96  O         -6.9000  -19.3720  158.5690 O.2   154  VAL154     -0.2867
     97  CB        -9.8510  -20.0420  159.0240 C.3   154  VAL154      0.0252
     98  CG1      -11.0410  -20.4790  159.8770 C.3   154  VAL154      0.0019
     99  CG2      -10.3200  -19.4600  157.6810 C.3   154  VAL154      0.0019
    100  N        -13.4460  -13.2440  152.4950 N.3   174  GLY174     -0.1210
    101  CA       -14.7080  -13.0090  151.8060 C.3   174  GLY174      0.1956
    102  C        -15.2500  -14.2730  151.1890 C.2   174  GLY174      0.2612
    103  O        -15.0520  -15.3740  151.7080 O.2   174  GLY174     -0.2717
    104  N        -15.9340  -14.1250  150.0650 N.am  175  SER175     -0.1952
    105  CA       -16.5190  -15.2630  149.4040 C.3   175  SER175      0.1924
    106  C        -16.2780  -15.1670  147.9170 C.2   175  SER175      0.2314
    107  O        -15.2930  -14.5680  147.4810 O.2   175  SER175     -0.2863
    108  CB       -18.0180  -15.3760  149.7280 C.3   175  SER175      0.2116
    109  OG       -18.5540  -16.5890  149.1870 O.3   175  SER175     -0.2180
    110  N        -15.3570  -27.2300  149.2210 N.3   191  ASN191     -0.1225
    111  CA       -15.8650  -28.1270  150.2150 C.3   191  ASN191      0.1785
    112  C        -16.7760  -27.3210  151.1380 C.2   191  ASN191      0.2597
    113  O        -16.3360  -26.8020  152.1680 O.2   191  ASN191     -0.2718
    114  CB       -14.7070  -28.7570  150.9830 C.3   191  ASN191      0.1169
    115  CG       -15.1660  -29.7100  152.0400 C.2   191  ASN191      0.2627
    116  OD1      -16.3530  -30.0130  152.1450 O.2   191  ASN191     -0.2716
    117  ND2      -14.2390  -30.1670  152.8610 N.am  191  ASN191     -0.0877
    118  N        -18.0360  -27.1910  150.7380 N.am  192  LEU192     -0.1966
    119  CA       -18.9820  -26.3850  151.4770 C.3   192  LEU192      0.1728
    120  C        -20.0990  -27.2610  151.9330 C.2   192  LEU192      0.2616
    121  O        -19.8750  -28.2000  152.6960 O.2   192  LEU192     -0.2715
    122  CB       -19.4840  -25.2090  150.6240 C.3   192  LEU192      0.0311
    123  CG       -18.3440  -24.2640  150.2400 C.3   192  LEU192      0.0022
    124  CD1      -18.7610  -23.2880  149.1410 C.3   192  LEU192      0.0001
    125  CD2      -17.8580  -23.5160  151.4540 C.3   192  LEU192      0.0001
    126  N        -21.3150  -26.9580  151.4950 N.am  193  TYR193     -0.1974
    127  CA       -22.4490  -27.8510  151.7380 C.3   193  TYR193      0.1639
    128  C        -23.4130  -27.6430  150.5870 C.2   193  TYR193      0.2290
    129  O        -23.3250  -26.6160  149.9140 O.2   193  TYR193     -0.2864
    130  CB       -23.1150  -27.5700  153.1010 C.3   193  TYR193      0.0560
    131  CG       -23.3620  -26.0940  153.3830 C.ar  193  TYR193     -0.0198
    132  CD1      -24.6140  -25.5200  153.1640 C.ar  193  TYR193     -0.0009
    133  CD2      -22.3350  -25.2780  153.8670 C.ar  193  TYR193     -0.0009
    134  CE1      -24.8380  -24.1620  153.4210 C.ar  193  TYR193      0.0417
    135  CE2      -22.5500  -23.9350  154.1370 C.ar  193  TYR193      0.0417
    136  CZ       -23.8080  -23.3760  153.9160 C.ar  193  TYR193      0.1957
    137  OH       -24.0040  -22.0430  154.1770 O.3   193  TYR193     -0.2866
    138  N        -25.4200  -24.3320  149.8260 N.3   196  LEU196     -0.1245
    139  CA       -24.5610  -23.2450  149.3920 C.3   196  LEU196      0.1561
    140  C        -24.2070  -23.4230  147.9200 C.2   196  LEU196      0.2260
    141  O        -24.3410  -22.4730  147.1490 O.2   196  LEU196     -0.2867
    142  CB       -23.3150  -23.0900  150.2740 C.3   196  LEU196      0.0270
    143  CG       -22.5430  -21.7590  150.1440 C.3   196  LEU196      0.0019
    144  CD1      -23.4700  -20.5070  150.1100 C.3   196  LEU196      0.0001
    145  CD2      -21.4780  -21.6010  151.2540 C.3   196  LEU196      0.0001
    146  N        -25.1400  -20.9070  144.8290 N.3   200  LEU200     -0.1245
    147  CA       -23.9930  -20.2640  144.1700 C.3   200  LEU200      0.1561
    148  C        -23.7060  -20.6950  142.7390 C.2   200  LEU200      0.2260
    149  O        -22.9450  -20.0080  142.0430 O.2   200  LEU200     -0.2867
    150  CB       -22.7090  -20.4870  144.9880 C.3   200  LEU200      0.0270
    151  CG       -22.5490  -19.8530  146.3690 C.3   200  LEU200      0.0019
    152  CD1      -21.1070  -19.9880  146.8620 C.3   200  LEU200      0.0001
    153  CD2      -23.0100  -18.3680  146.3320 C.3   200  LEU200      0.0001
@<TRIPOS>BOND
     1   149   148    2
     2   148   147    1
     3   147   146    1
     4   147   150    1
     5   150   151    1
     6    23    24    1
     7   153   151    1
     8   151   152    1
     9    38    36    1
    10    24    25    1
    11    24    27    1
    12   141   140    2
    13    35    36    1
    14    35    32    1
    15    64    63    2
    16    31    25   am
    17    31    32    1
    18   107   106    2
    19    36    37    1
    20    25    26    2
    21    27    28    1
    22   106   105    1
    23   140   139    1
    24    32    33    1
    25    63    62    1
    26    28    29   ar
    27    28    30   ar
    28    65    62    1
    29    65    66    1
    30   124   123    1
    31   109   108    1
    32    67    66    1
    33   110   111    1
    34   139   138    1
    35   139   142    1
    36   105   108    1
    37   105   104    1
    38    62    61    1
    39    33    34    2
    40    33    39   am
    41    68    66    1
    42   129   128    2
    43   104   102   am
    44   144   143    1
    45   143   142    1
    46   143   145    1
    47   111   114    1
    48   111   112    1
    49   123   122    1
    50   123   125    1
    51    39    40    1
    52   128   127    1
    53   122   119    1
    54    57    56    2
    55    19    18    2
    56   118   112   am
    57   118   119    1
    58    61    56   am
    59   114   115    1
    60   112   113    2
    61   102   103    2
    62   102   101    1
    63    56    55    1
    64   119   120    1
    65   126   127    1
    66   126   120   am
    67    18    17    1
    68    48    47    1
    69   127   130    1
    70   101   100    1
    71    40    41    1
    72   120   121    2
    73    47    44    1
    74    47    49    1
    75   115   116    2
    76   115   117   am
    77    41    43   am
    78    41    42    2
    79    43    44    1
    80    44    45    1
    81    69    70    1
    82    17    16    1
    83    17    20    1
    84    55    54    1
    85    55    58    1
    86   130   131    1
    87   132   131   ar
    88   132   134   ar
    89    60    58    1
    90   131   133   ar
    91   134   136   ar
    92    22    20    1
    93    70    71    1
    94    70    73    1
    95    58    59    1
    96    83    81    1
    97    20    21    1
    98    45    46    2
    99    45    50   am
   100   133   135   ar
   101   136   135   ar
   102   136   137    1
   103    71    72    2
   104    71    77   am
   105    77    78    1
   106    73    74    1
   107    50    51    1
   108    75    74   ar
   109    81    78    1
   110    81    82    1
   111    78    79    1
   112    74    76   ar
   113    82    84    1
   114    51    52    1
   115    52    53    2
   116    79    85   am
   117    79    80    2
   118    15    14    2
   119    13    14    1
   120    13    12    1
   121     9     7   ar
   122     9    11   ar
   123    85    86    1
   124     7     6   ar
   125     4     3    2
   126    99    97    1
   127    12     3   am
   128    11    10   ar
   129    88    87    2
   130     3     2    1
   131    96    95    2
   132    86    87    1
   133    86    89    1
   134     6     5    1
   135     6     8   ar
   136    95    94    1
   137     5     2    1
   138    97    94    1
   139    97    98    1
   140    89    90    1
   141    10     8   ar
   142     2     1    1
   143    94    93    1
   144    90    92   ar
   145    90    91   ar
