@<TRIPOS>MOLECULE
tmp/3ck9A00.pdb
 136 136 0 0 0
SMALL
GASTEIGER

@<TRIPOS>ATOM
      1  N         18.6020  -34.3230   -9.8610 N.3    30  ASP30      -0.1225
      2  CA        18.1880  -33.9150   -8.5260 C.3    30  ASP30       0.1805
      3  C         16.7000  -34.2390   -8.4220 C.2    30  ASP30       0.2598
      4  O         15.9500  -34.0680   -9.3890 O.2    30  ASP30      -0.2718
      5  CB        18.4060  -32.4080   -8.3310 C.3    30  ASP30       0.1424
      6  CG        19.8210  -32.0680   -7.8810 C.2    30  ASP30       0.3668
      7  OD1       20.1500  -30.8620   -7.8030 O.co2  30  ASP30      -0.2456
      8  OD2       20.6000  -33.0020   -7.5960 O.co2  30  ASP30      -0.2456
      9  N         16.2740  -34.7210   -7.2600 N.am   31  GLU31      -0.1965
     10  CA        14.8690  -35.0650   -7.0620 C.3    31  GLU31       0.1733
     11  C         13.9750  -33.8710   -7.3850 C.2    31  GLU31       0.2617
     12  O         12.8830  -34.0320   -7.9370 O.2    31  GLU31      -0.2715
     13  CB        14.6200  -35.4970   -5.6130 C.3    31  GLU31       0.0429
     14  CG        13.1810  -35.9080   -5.3260 C.3    31  GLU31       0.1163
     15  CD        12.9440  -36.2390   -3.8640 C.2    31  GLU31       0.3649
     16  OE1       13.6410  -37.1230   -3.3310 O.co2  31  GLU31      -0.2457
     17  OE2       12.0590  -35.6120   -3.2470 O.co2  31  GLU31      -0.2457
     18  N         14.4520  -32.6790   -7.0320 N.am   32  GLY32      -0.1940
     19  CA        13.6920  -31.4640   -7.2670 C.3    32  GLY32       0.2014
     20  C         13.5230  -31.0740   -8.7220 C.2    32  GLY32       0.2638
     21  O         12.8650  -30.0790   -9.0200 O.2    32  GLY32      -0.2714
     22  N         14.1190  -31.8500   -9.6240 N.am   33  GLU33      -0.1977
     23  CA        14.0440  -31.5990  -11.0630 C.3    33  GLU33       0.1602
     24  C         13.0740  -32.5620  -11.7320 C.2    33  GLU33       0.2287
     25  O         12.7610  -32.4230  -12.9180 O.2    33  GLU33      -0.2864
     26  CB        15.4210  -31.8030  -11.7100 C.3    33  GLU33       0.0415
     27  CG        16.5230  -30.8530  -11.2580 C.3    33  GLU33       0.1163
     28  CD        16.6620  -29.6340  -12.1610 C.2    33  GLU33       0.3649
     29  OE1       17.5640  -28.8090  -11.9070 O.co2  33  GLU33      -0.2457
     30  OE2       15.8760  -29.5030  -13.1220 O.co2  33  GLU33      -0.2457
     31  N          7.6570  -28.6390  -12.8220 N.3    38  ARG38      -0.1245
     32  CA         8.9180  -28.0730  -13.2750 C.3    38  ARG38       0.1563
     33  C          9.3760  -28.5190  -14.6650 C.2    38  ARG38       0.2260
     34  O          9.7980  -27.6920  -15.4760 O.2    38  ARG38      -0.2867
     35  CB        10.0080  -28.3740  -12.2440 C.3    38  ARG38       0.0307
     36  CG        11.3460  -27.7460  -12.5560 C.3    38  ARG38       0.0489
     37  CD        12.3040  -27.9750  -11.4180 C.3    38  ARG38       0.2205
     38  NE        13.5820  -27.3210  -11.6600 N.pl3  38  ARG38      -0.0865
     39  CZ        14.5050  -27.1450  -10.7280 C.cat  38  ARG38       0.5346
     40  NH1       14.2840  -27.5800   -9.4980 N.pl3  38  ARG38       0.1354
     41  NH2       15.6370  -26.5230  -11.0220 N.pl3  38  ARG38       0.1354
     42  N         17.2110  -18.8190  -17.9510 N.3    53  TRP53      -0.1241
     43  CA        17.7420  -19.4770  -16.7670 C.3    53  TRP53       0.1605
     44  C         19.1570  -18.9120  -16.6240 C.2    53  TRP53       0.2264
     45  O         19.9970  -19.0910  -17.5020 O.2    53  TRP53      -0.2867
     46  CB        17.7660  -20.9990  -16.9620 C.3    53  TRP53       0.0550
     47  CG        18.2120  -21.7470  -15.7360 C.ar   53  TRP53       0.0003
     48  CD1       19.4740  -22.1800  -15.4550 C.ar   53  TRP53       0.0946
     49  CD2       17.4080  -22.0930  -14.6000 C.ar   53  TRP53       0.0152
     50  NE1       19.5100  -22.7710  -14.2140 N.ar   53  TRP53      -0.2442
     51  CE2       18.2540  -22.7320  -13.6670 C.ar   53  TRP53       0.0810
     52  CE3       16.0530  -21.9210  -14.2770 C.ar   53  TRP53       0.0012
     53  CZ2       17.7920  -23.2020  -12.4330 C.ar   53  TRP53       0.0191
     54  CZ3       15.5930  -22.3880  -13.0460 C.ar   53  TRP53       0.0001
     55  CH2       16.4620  -23.0200  -12.1430 C.ar   53  TRP53       0.0015
     56  N         21.7530  -19.6650  -14.5890 N.3    55  TRP55      -0.1241
     57  CA        22.8900  -20.5600  -14.4560 C.3    55  TRP55       0.1605
     58  C         22.9770  -21.5480  -15.6100 C.2    55  TRP55       0.2264
     59  O         22.5580  -22.6980  -15.5020 O.2    55  TRP55      -0.2867
     60  CB        22.8250  -21.2780  -13.1050 C.3    55  TRP55       0.0550
     61  CG        22.6760  -20.3120  -11.9700 C.ar   55  TRP55       0.0003
     62  CD1       21.5060  -19.8410  -11.4420 C.ar   55  TRP55       0.0946
     63  CD2       23.7310  -19.6350  -11.2730 C.ar   55  TRP55       0.0152
     64  NE1       21.7670  -18.9130  -10.4610 N.ar   55  TRP55      -0.2442
     65  CE2       23.1240  -18.7680  -10.3360 C.ar   55  TRP55       0.0810
     66  CE3       25.1310  -19.6770  -11.3500 C.ar   55  TRP55       0.0012
     67  CZ2       23.8690  -17.9490   -9.4810 C.ar   55  TRP55       0.0191
     68  CZ3       25.8740  -18.8590  -10.4980 C.ar   55  TRP55       0.0001
     69  CH2       25.2370  -18.0080   -9.5760 C.ar   55  TRP55       0.0015
     70  N         25.3860  -23.1670  -16.7460 N.3    57  LYS57      -0.1231
     71  CA        26.2400  -24.3350  -16.5650 C.3    57  LYS57       0.1693
     72  C         25.4180  -25.5610  -16.1660 C.2    57  LYS57       0.2592
     73  O         25.8930  -26.6880  -16.2730 O.2    57  LYS57      -0.2718
     74  CB        27.3290  -24.0610  -15.5200 C.3    57  LYS57       0.0285
     75  CG        28.3230  -22.9800  -15.9340 C.3    57  LYS57       0.0035
     76  CD        29.4220  -22.8120  -14.8960 C.3    57  LYS57       0.0206
     77  CE        30.3200  -21.6250  -15.2280 C.3    57  LYS57       0.1093
     78  NZ        30.8980  -21.7420  -16.5920 N.3    57  LYS57      -0.1314
     79  N         24.1870  -25.3460  -15.7100 N.am   58  ASN58      -0.1974
     80  CA        23.3290  -26.4700  -15.3440 C.3    58  ASN58       0.1688
     81  C         23.1330  -27.3240  -16.5930 C.2    58  ASN58       0.2292
     82  O         22.9470  -26.7980  -17.6890 O.2    58  ASN58      -0.2864
     83  CB        21.9710  -25.9830  -14.8430 C.3    58  ASN58       0.1181
     84  CG        22.0510  -25.3020  -13.4930 C.2    58  ASN58       0.2629
     85  OD1       21.0390  -24.8520  -12.9640 O.2    58  ASN58      -0.2716
     86  ND2       23.2540  -25.2260  -12.9250 N.am   58  ASN58      -0.0877
     87  N         10.5220  -28.3610   -4.7500 N.3   253  TYR253     -0.1241
     88  CA        11.4810  -27.4110   -5.3050 C.3   253  TYR253      0.1605
     89  C         11.0260  -26.9550   -6.6800 C.2   253  TYR253      0.2264
     90  O         11.3200  -25.8330   -7.1030 O.2   253  TYR253     -0.2867
     91  CB        12.8760  -28.0270   -5.4190 C.3   253  TYR253      0.0534
     92  CG        13.5760  -28.2200   -4.0950 C.ar  253  TYR253     -0.0201
     93  CD1       13.5950  -29.4620   -3.4720 C.ar  253  TYR253     -0.0009
     94  CD2       14.2250  -27.1590   -3.4690 C.ar  253  TYR253     -0.0009
     95  CE1       14.2500  -29.6510   -2.2570 C.ar  253  TYR253      0.0417
     96  CE2       14.8790  -27.3300   -2.2530 C.ar  253  TYR253      0.0417
     97  CZ        14.8900  -28.5810   -1.6540 C.ar  253  TYR253      0.1957
     98  OH        15.5570  -28.7650   -0.4700 O.3   253  TYR253     -0.2866
     99  N         15.3760  -17.6230    0.7440 N.3   275  ASN275     -0.1225
    100  CA        16.2720  -18.1330   -0.2760 C.3   275  ASN275      0.1785
    101  C         15.9640  -17.6610   -1.6970 C.2   275  ASN275      0.2598
    102  O         14.9540  -18.0440   -2.2890 O.2   275  ASN275     -0.2718
    103  CB        16.2540  -19.6610   -0.2300 C.3   275  ASN275      0.1169
    104  CG        17.6440  -20.2630   -0.2480 C.2   275  ASN275      0.2627
    105  OD1       18.4210  -20.0900    0.6960 O.2   275  ASN275     -0.2716
    106  ND2       17.9680  -20.9770   -1.3250 N.am  275  ASN275     -0.0877
    107  N         16.8430  -16.8230   -2.2350 N.am  276  GLY276     -0.1942
    108  CA        16.6760  -16.3430   -3.5920 C.3   276  GLY276      0.2014
    109  C         17.6850  -17.0920   -4.4410 C.2   276  GLY276      0.2639
    110  O         18.8840  -16.9280   -4.2510 O.2   276  GLY276     -0.2714
    111  N         17.2140  -17.9180   -5.3690 N.am  277  TRP277     -0.1959
    112  CA        18.1190  -18.7030   -6.2140 C.3   277  TRP277      0.1771
    113  C         18.6870  -17.9180   -7.3920 C.2   277  TRP277      0.2620
    114  O         19.6420  -18.3570   -8.0310 O.2   277  TRP277     -0.2715
    115  CB        17.4050  -19.9400   -6.7810 C.3   277  TRP277      0.0590
    116  CG        16.6570  -20.7820   -5.7830 C.ar  277  TRP277      0.0006
    117  CD1       16.7050  -20.6890   -4.4240 C.ar  277  TRP277      0.0946
    118  CD2       15.7860  -21.8820   -6.0800 C.ar  277  TRP277      0.0152
    119  NE1       15.9220  -21.6630   -3.8540 N.ar  277  TRP277     -0.2442
    120  CE2       15.3460  -22.4100   -4.8470 C.ar  277  TRP277      0.0810
    121  CE3       15.3380  -22.4740   -7.2690 C.ar  277  TRP277      0.0012
    122  CZ2       14.4760  -23.5030   -4.7660 C.ar  277  TRP277      0.0191
    123  CZ3       14.4750  -23.5620   -7.1920 C.ar  277  TRP277      0.0001
    124  CH2       14.0530  -24.0650   -5.9480 C.ar  277  TRP277      0.0015
    125  N         18.0870  -16.7680   -7.6870 N.am  278  SER278     -0.1936
    126  CA        18.5160  -15.9460   -8.8110 C.3   278  SER278      0.2055
    127  C         18.6360  -16.7810  -10.0950 C.2   278  SER278      0.2643
    128  O         19.6720  -16.7680  -10.7550 O.2   278  SER278     -0.2714
    129  CB        19.8550  -15.2630   -8.4880 C.3   278  SER278      0.2130
    130  OG        20.8300  -16.1940   -8.0480 O.3   278  SER278     -0.2179
    131  N         17.5670  -17.4910  -10.4500 N.am  279  CYS279     -0.1967
    132  CA        17.5620  -18.3360  -11.6470 C.3   279  CYS279      0.1712
    133  C         16.7530  -17.8230  -12.8350 C.2   279  CYS279      0.2296
    134  O         17.2700  -17.6970  -13.9430 O.2   279  CYS279     -0.2864
    135  CB        17.0480  -19.7360  -11.3090 C.3   279  CYS279      0.0983
    136  SG        18.1420  -20.7000  -10.2650 S.3   279  CYS279     -0.0798
@<TRIPOS>BOND
     1    42    43    1
     2    82    81    2
     3    45    44    2
     4    46    43    1
     5    46    47    1
     6    43    44    1
     7    70    71    1
     8    81    80    1
     9    78    77    1
    10    71    72    1
    11    71    74    1
    12    73    72    2
    13    72    79   am
    14    75    74    1
    15    75    76    1
    16    47    48   ar
    17    47    49   ar
    18    79    80    1
    19    58    59    2
    20    58    57    1
    21    34    33    2
    22    48    50   ar
    23    80    83    1
    24    77    76    1
    25    83    84    1
    26    33    32    1
    27    49    52   ar
    28    49    51   ar
    29    56    57    1
    30    57    60    1
    31    52    54   ar
    32    50    51   ar
    33   134   133    2
    34    51    53   ar
    35    84    85    2
    36    84    86   am
    37    32    31    1
    38    32    35    1
    39    30    28   ar
    40    60    61    1
    41    54    55   ar
    42    25    24    2
    43   133   132    1
    44    36    35    1
    45    36    37    1
    46    53    55   ar
    47    28    29   ar
    48    28    27    1
    49    61    62   ar
    50    61    63   ar
    51    24    23    1
    52    26    27    1
    53    26    23    1
    54    38    37    1
    55    38    39    2
    56   132   135    1
    57   132   131    1
    58    62    64   ar
    59    66    63   ar
    60    66    68   ar
    61   135   136    1
    62    63    65   ar
    63    23    22    1
    64    41    39    1
    65   128   127    2
    66    39    40    1
    67    68    69   ar
    68    64    65   ar
    69   131   127   am
    70    65    67   ar
    71   127   126    1
    72     1     2    1
    73    22    20   am
    74    69    67   ar
    75     4     3    2
    76    21    20    2
    77   126   129    1
    78   126   125    1
    79    20    19    1
    80     2     3    1
    81     2     5    1
    82   129   130    1
    83     3     9   am
    84     5     6    1
    85   114   113    2
    86    12    11    2
    87     6     7   ar
    88     6     8   ar
    89   125   113   am
    90   113   112    1
    91    11    10    1
    92    11    18   am
    93   121   123   ar
    94   121   118   ar
    95    19    18    1
    96     9    10    1
    97   123   124   ar
    98    90    89    2
    99    10    13    1
   100   115   112    1
   101   115   116    1
   102    89    88    1
   103   112   111    1
   104   118   116   ar
   105   118   120   ar
   106   124   122   ar
   107   116   117   ar
   108    13    14    1
   109    91    88    1
   110    91    92    1
   111   111   109   am
   112    14    15    1
   113    88    87    1
   114   120   122   ar
   115   120   119   ar
   116   109   110    2
   117   109   108    1
   118   117   119   ar
   119    92    93   ar
   120    92    94   ar
   121    15    16   ar
   122    15    17   ar
   123   108   107    1
   124    93    95   ar
   125    94    96   ar
   126   102   101    2
   127    95    97   ar
   128    96    97   ar
   129   107   101   am
   130   101   100    1
   131    97    98    1
   132   106   104   am
   133   100   103    1
   134   100    99    1
   135   104   103    1
   136   104   105    2
