@<TRIPOS>MOLECULE
tmp/3ck9B00.pdb
 136 136 0 0 0
SMALL
GASTEIGER

@<TRIPOS>ATOM
      1  N         15.1740   22.2790   30.0080 N.3    37  ASP37      -0.1225
      2  CA        16.0370   21.7480   28.9640 C.3    37  ASP37       0.1805
      3  C         15.7740   22.6290   27.7370 C.2    37  ASP37       0.2598
      4  O         14.6480   23.0880   27.5270 O.2    37  ASP37      -0.2718
      5  CB        15.6590   20.2950   28.6480 C.3    37  ASP37       0.1424
      6  CG        16.0030   19.3300   29.7770 C.2    37  ASP37       0.3668
      7  OD1       15.3460   18.2700   29.8700 O.co2  37  ASP37      -0.2456
      8  OD2       16.9330   19.6150   30.5630 O.co2  37  ASP37      -0.2456
      9  N         16.8020   22.8800   26.9350 N.am   38  GLU38      -0.1965
     10  CA        16.6250   23.7100   25.7520 C.3    38  GLU38       0.1733
     11  C         15.4740   23.2000   24.8770 C.2    38  GLU38       0.2617
     12  O         14.6670   23.9860   24.3750 O.2    38  GLU38      -0.2715
     13  CB        17.9200   23.7550   24.9390 C.3    38  GLU38       0.0429
     14  CG        17.7800   24.4790   23.6080 C.3    38  GLU38       0.1163
     15  CD        19.0710   24.5160   22.8200 C.2    38  GLU38       0.3649
     16  OE1       19.0150   24.3440   21.5840 O.co2  38  GLU38      -0.2457
     17  OE2       20.1390   24.7250   23.4300 O.co2  38  GLU38      -0.2457
     18  N         15.3990   21.8830   24.7070 N.am   39  GLY39      -0.1940
     19  CA        14.3480   21.2940   23.8990 C.3    39  GLY39       0.2014
     20  C         12.9480   21.4910   24.4520 C.2    39  GLY39       0.2638
     21  O         11.9700   21.0710   23.8330 O.2    39  GLY39      -0.2714
     22  N         12.8460   22.1230   25.6180 N.am   40  GLU40      -0.1977
     23  CA        11.5510   22.3770   26.2470 C.3    40  GLU40       0.1602
     24  C         11.1270   23.8390   26.1130 C.2    40  GLU40       0.2287
     25  O         10.0070   24.1950   26.4770 O.2    40  GLU40      -0.2864
     26  CB        11.6000   22.0130   27.7410 C.3    40  GLU40       0.0415
     27  CG        11.8000   20.5220   28.0350 C.3    40  GLU40       0.1163
     28  CD        10.5220   19.8260   28.4770 C.2    40  GLU40       0.3649
     29  OE1        9.4320   20.2140   28.0060 O.co2  40  GLU40      -0.2457
     30  OE2       10.6100   18.8800   29.2890 O.co2  40  GLU40      -0.2457
     31  N          6.3510   23.6000   21.1530 N.3    45  ARG45      -0.1245
     32  CA         6.1430   22.6880   22.2730 C.3    45  ARG45       0.1563
     33  C          5.4490   23.3130   23.4740 C.2    45  ARG45       0.2260
     34  O          4.5190   22.7320   24.0280 O.2    45  ARG45      -0.2867
     35  CB         7.4820   22.0960   22.7120 C.3    45  ARG45       0.0307
     36  CG         7.3740   21.0160   23.7680 C.3    45  ARG45       0.0489
     37  CD         8.7380   20.4010   24.0050 C.3    45  ARG45       0.2205
     38  NE         8.6770   19.2560   24.9040 N.pl3  45  ARG45      -0.0865
     39  CZ         9.7020   18.4420   25.1340 C.cat  45  ARG45       0.5346
     40  NH1       10.8650   18.6550   24.5290 N.pl3  45  ARG45       0.1354
     41  NH2        9.5590   17.4080   25.9530 N.pl3  45  ARG45       0.1354
     42  N          0.4860   12.5890   28.4240 N.3    60  TRP60      -0.1241
     43  CA         1.9380   12.4560   28.4390 C.3    60  TRP60       0.1605
     44  C          2.2070   11.2710   29.3700 C.2    60  TRP60       0.2264
     45  O          1.8930   11.3220   30.5600 O.2    60  TRP60      -0.2867
     46  CB         2.5790   13.7390   28.9680 C.3    60  TRP60       0.0550
     47  CG         4.0770   13.7210   28.9560 C.ar   60  TRP60       0.0003
     48  CD1        4.9030   13.4320   30.0070 C.ar   60  TRP60       0.0946
     49  CD2        4.9320   14.0350   27.8500 C.ar   60  TRP60       0.0152
     50  NE1        6.2160   13.5540   29.6280 N.ar   60  TRP60      -0.2442
     51  CE2        6.2650   13.9220   28.3090 C.ar   60  TRP60       0.0810
     52  CE3        4.7020   14.4010   26.5150 C.ar   60  TRP60       0.0012
     53  CZ2        7.3680   14.1660   27.4780 C.ar   60  TRP60       0.0191
     54  CZ3        5.8000   14.6430   25.6900 C.ar   60  TRP60       0.0001
     55  CH2        7.1180   14.5240   26.1800 C.ar   60  TRP60       0.0015
     56  N          4.8800    9.9610   30.7950 N.3    62  TRP62      -0.1241
     57  CA         5.7360   10.1110   31.9620 C.3    62  TRP62       0.1605
     58  C          5.2640   11.2100   32.8890 C.2    62  TRP62       0.2264
     59  O          5.7920   12.3190   32.8720 O.2    62  TRP62      -0.2867
     60  CB         7.1720   10.3690   31.5250 C.3    62  TRP62       0.0550
     61  CG         7.6460    9.3560   30.5400 C.ar   62  TRP62       0.0003
     62  CD1        7.5850    9.4410   29.1760 C.ar   62  TRP62       0.0946
     63  CD2        8.2240    8.0830   30.8370 C.ar   62  TRP62       0.0152
     64  NE1        8.0900    8.2990   28.6050 N.ar   62  TRP62      -0.2442
     65  CE2        8.4890    7.4470   29.6020 C.ar   62  TRP62       0.0810
     66  CE3        8.5430    7.4130   32.0270 C.ar   62  TRP62       0.0012
     67  CZ2        9.0580    6.1740   29.5250 C.ar   62  TRP62       0.0191
     68  CZ3        9.1090    6.1460   31.9480 C.ar   62  TRP62       0.0001
     69  CH2        9.3600    5.5420   30.7050 C.ar   62  TRP62       0.0015
     70  N          5.8200   11.6700   35.8520 N.3    64  LYS64      -0.1231
     71  CA         6.8220   12.1090   36.8150 C.3    64  LYS64       0.1693
     72  C          7.5980   13.3330   36.3400 C.2    64  LYS64       0.2592
     73  O          8.2620   13.9970   37.1380 O.2    64  LYS64      -0.2718
     74  CB         7.7860   10.9650   37.1400 C.3    64  LYS64       0.0285
     75  CG         7.1640    9.8560   37.9830 C.3    64  LYS64       0.0035
     76  CD         7.1150   10.2280   39.4620 C.3    64  LYS64       0.0206
     77  CE         6.0040   11.2110   39.8010 C.3    64  LYS64       0.1093
     78  NZ         4.6440   10.6190   39.6290 N.3    64  LYS64      -0.1314
     79  N          7.5270   13.6380   35.0460 N.am   65  ASN65      -0.1974
     80  CA         8.2070   14.8260   34.5410 C.3    65  ASN65       0.1688
     81  C          7.5620   16.0160   35.2490 C.2    65  ASN65       0.2292
     82  O          6.3430   16.0650   35.4200 O.2    65  ASN65      -0.2864
     83  CB         8.0180   14.9720   33.0290 C.3    65  ASN65       0.1181
     84  CG         8.8630   14.0010   32.2290 C.2    65  ASN65       0.2629
     85  OD1        8.7920   13.9860   31.0010 O.2    65  ASN65      -0.2716
     86  ND2        9.6690   13.1870   32.9160 N.am   65  ASN65      -0.0877
     87  N         13.8050   19.4790   19.2490 N.3   260  TYR260     -0.1241
     88  CA        13.2100   18.3870   20.0170 C.3   260  TYR260      0.1605
     89  C         11.7180   18.6230   20.2280 C.2   260  TYR260      0.2264
     90  O         10.9390   17.6770   20.3640 O.2   260  TYR260     -0.2867
     91  CB        13.8810   18.2470   21.3810 C.3   260  TYR260      0.0534
     92  CG        15.2980   17.7280   21.3360 C.ar  260  TYR260     -0.0201
     93  CD1       16.3830   18.5850   21.5220 C.ar  260  TYR260     -0.0009
     94  CD2       15.5540   16.3670   21.1540 C.ar  260  TYR260     -0.0009
     95  CE1       17.6860   18.1010   21.5380 C.ar  260  TYR260      0.0417
     96  CE2       16.8520   15.8720   21.1660 C.ar  260  TYR260      0.0417
     97  CZ        17.9130   16.7430   21.3630 C.ar  260  TYR260      0.1957
     98  OH        19.1960   16.2520   21.4140 O.3   260  TYR260     -0.2866
     99  N         14.5030    6.7010   17.2060 N.3   282  ASN282     -0.1225
    100  CA        14.1850    6.8900   18.6140 C.3   282  ASN282      0.1785
    101  C         12.7360    7.2070   18.9800 C.2   282  ASN282      0.2598
    102  O         12.2170    8.2820   18.6640 O.2   282  ASN282     -0.2718
    103  CB        15.1200    7.9600   19.1930 C.3   282  ASN282      0.1169
    104  CG        14.8380    8.2590   20.6510 C.2   282  ASN282      0.2627
    105  OD1       14.3080    7.4190   21.3790 O.2   282  ASN282     -0.2716
    106  ND2       15.2090    9.4580   21.0910 N.am  282  ASN282     -0.0877
    107  N         12.0980    6.2530   19.6580 N.am  283  GLY283     -0.1942
    108  CA        10.7290    6.4310   20.1080 C.3   283  GLY283      0.2014
    109  C         10.7440    6.7620   21.5940 C.2   283  GLY283      0.2639
    110  O         11.1840    5.9500   22.4030 O.2   283  GLY283     -0.2714
    111  N         10.2650    7.9490   21.9570 N.am  284  TRP284     -0.1959
    112  CA        10.2610    8.3820   23.3550 C.3   284  TRP284      0.1771
    113  C          9.0920    7.8400   24.1650 C.2   284  TRP284      0.2620
    114  O          9.0890    7.9460   25.3880 O.2   284  TRP284     -0.2715
    115  CB        10.2250    9.9160   23.4590 C.3   284  TRP284      0.0590
    116  CG        11.2190   10.6550   22.6060 C.ar  284  TRP284      0.0006
    117  CD1       12.2990   10.1340   21.9510 C.ar  284  TRP284      0.0946
    118  CD2       11.2160   12.0630   22.3190 C.ar  284  TRP284      0.0152
    119  NE1       12.9670   11.1300   21.2710 N.ar  284  TRP284     -0.2442
    120  CE2       12.3260   12.3190   21.4820 C.ar  284  TRP284      0.0810
    121  CE3       10.3850   13.1270   22.6920 C.ar  284  TRP284      0.0012
    122  CZ2       12.6210   13.6040   21.0070 C.ar  284  TRP284      0.0191
    123  CZ3       10.6800   14.4070   22.2190 C.ar  284  TRP284      0.0001
    124  CH2       11.7920   14.6320   21.3870 C.ar  284  TRP284      0.0015
    125  N          8.1000    7.2750   23.4840 N.am  285  SER285     -0.1936
    126  CA         6.9140    6.7410   24.1470 C.3   285  SER285      0.2055
    127  C          6.3820    7.7540   25.1610 C.2   285  SER285      0.2643
    128  O          6.2450    7.4500   26.3440 O.2   285  SER285     -0.2714
    129  CB         7.2390    5.4100   24.8450 C.3   285  SER285      0.2130
    130  OG         8.1940    5.5740   25.8830 O.3   285  SER285     -0.2179
    131  N          6.0820    8.9590   24.6860 N.am  286  CYS286     -0.1967
    132  CA         5.5700   10.0230   25.5430 C.3   286  CYS286      0.1712
    133  C          4.0950   10.3610   25.3270 C.2   286  CYS286      0.2296
    134  O          3.3190   10.4200   26.2780 O.2   286  CYS286     -0.2864
    135  CB         6.3850   11.3000   25.3410 C.3   286  CYS286      0.0983
    136  SG         8.0760   11.2410   25.9370 S.3   286  CYS286     -0.0798
@<TRIPOS>BOND
     1    99   100    1
     2   100   101    1
     3   100   103    1
     4   102   101    2
     5   101   107   am
     6   103   104    1
     7    87    88    1
     8   107   108    1
     9    88    89    1
    10    88    91    1
    11   108   109    1
    12    89    90    2
    13   104   106   am
    14   104   105    2
    15   122   124   ar
    16   122   120   ar
    17    31    32    1
    18    94    96   ar
    19    94    92   ar
    20    96    97   ar
    21   119   120   ar
    22   119   117   ar
    23    92    91    1
    24    92    93   ar
    25    97    98    1
    26    97    95   ar
    27   124   123   ar
    28   120   118   ar
    29    93    95   ar
    30    16    15   ar
    31   109   111   am
    32   109   110    2
    33   117   116   ar
    34   111   112    1
    35   123   121   ar
    36    32    35    1
    37    32    33    1
    38   118   116   ar
    39   118   121   ar
    40   116   115    1
    41    35    36    1
    42    15    17   ar
    43    15    14    1
    44   112   115    1
    45   112   113    1
    46    33    34    2
    47   125   126    1
    48   125   113   am
    49    14    13    1
    50    36    37    1
    51    21    20    2
    52    19    20    1
    53    19    18    1
    54    37    38    1
    55   126   129    1
    56   126   127    1
    57   113   114    2
    58    12    11    2
    59    20    22   am
    60    40    39    1
    61   131   127   am
    62   131   132    1
    63    18    11   am
    64   129   130    1
    65    11    10    1
    66    38    39    2
    67    13    10    1
    68    39    41    1
    69   127   128    2
    70   133   132    1
    71   133   134    2
    72   135   132    1
    73   135   136    1
    74    22    23    1
    75    54    55   ar
    76    54    52   ar
    77    10     9    1
    78    24    23    1
    79    24    25    2
    80    55    53   ar
    81    23    26    1
    82    52    49   ar
    83     9     3   am
    84    53    51   ar
    85     4     3    2
    86     3     2    1
    87    26    27    1
    88    49    51   ar
    89    49    47   ar
    90    29    28   ar
    91    27    28    1
    92    51    50   ar
    93    42    43    1
    94    43    46    1
    95    43    44    1
    96    28    30   ar
    97    64    62   ar
    98    64    65   ar
    99     5     2    1
   100     5     6    1
   101    47    46    1
   102    47    48   ar
   103     2     1    1
   104    62    61   ar
   105    44    45    2
   106    67    65   ar
   107    67    69   ar
   108    65    63   ar
   109    50    48   ar
   110     6     7   ar
   111     6     8   ar
   112    61    63   ar
   113    61    60    1
   114    69    68   ar
   115    56    57    1
   116    63    66   ar
   117    85    84    2
   118    60    57    1
   119    68    66   ar
   120    57    58    1
   121    84    86   am
   122    84    83    1
   123    59    58    2
   124    83    80    1
   125    80    79    1
   126    80    81    1
   127    79    72   am
   128    81    82    2
   129    70    71    1
   130    72    71    1
   131    72    73    2
   132    71    74    1
   133    74    75    1
   134    75    76    1
   135    76    77    1
   136    78    77    1
