@<TRIPOS>MOLECULE
tmp/3ckaB03.pdb
 112 103 0 0 0
SMALL
GASTEIGER

@<TRIPOS>ATOM
      1  N         26.7810  -38.2940   -1.2250 N.3   175  LEU175     -0.1245
      2  CA        25.6710  -38.1330   -0.2820 C.3   175  LEU175      0.1561
      3  C         26.0680  -38.6950    1.0680 C.2   175  LEU175      0.2260
      4  O         26.5280  -39.8450    1.1760 O.2   175  LEU175     -0.2867
      5  CB        24.4110  -38.8400   -0.8370 C.3   175  LEU175      0.0270
      6  CG        23.2060  -38.7870    0.0960 C.3   175  LEU175      0.0019
      7  CD1       22.5040  -37.4180    0.0450 C.3   175  LEU175      0.0001
      8  CD2       22.1880  -39.8300   -0.3300 C.3   175  LEU175      0.0001
      9  N         20.5180  -37.8140    4.5810 N.3   178  LYS178     -0.1245
     10  CA        19.2890  -37.5080    3.8200 C.3   178  LYS178      0.1561
     11  C         18.0870  -37.5450    4.7400 C.2   178  LYS178      0.2260
     12  O         17.9700  -38.3900    5.6050 O.2   178  LYS178     -0.2867
     13  CB        19.1250  -38.4730    2.6320 C.3   178  LYS178      0.0271
     14  CG        17.8930  -38.2560    1.7420 C.3   178  LYS178      0.0035
     15  CD        17.9250  -39.2010    0.5330 C.3   178  LYS178      0.0206
     16  CE        16.8410  -38.9220   -0.4590 C.3   178  LYS178      0.1093
     17  NZ        17.0310  -39.7240   -1.7320 N.3   178  LYS178     -0.1314
     18  N         13.8940  -37.0980    4.6650 N.3   180  ILE180     -0.1245
     19  CA        12.6190  -37.0020    3.9130 C.3   180  ILE180      0.1561
     20  C         11.4590  -36.7360    4.8530 C.2   180  ILE180      0.2260
     21  O         11.2650  -37.4440    5.8510 O.2   180  ILE180     -0.2867
     22  CB        12.3480  -38.3450    3.1690 C.3   180  ILE180      0.0252
     23  CG1       13.4780  -38.5870    2.1500 C.3   180  ILE180      0.0019
     24  CG2       10.9980  -38.2720    2.4950 C.3   180  ILE180      0.0019
     25  CD1       13.4900  -39.9910    1.4670 C.3   180  ILE180      0.0001
     26  N          7.4180  -36.6060    4.7730 N.3   182  ARG182     -0.1245
     27  CA         6.2830  -36.9210    3.9300 C.3   182  ARG182      0.1563
     28  C          5.2240  -35.8380    4.1190 C.2   182  ARG182      0.2260
     29  O          5.1920  -35.1310    5.1380 O.2   182  ARG182     -0.2867
     30  CB         5.6830  -38.2900    4.2770 C.3   182  ARG182      0.0307
     31  CG         6.6900  -39.4370    4.0790 C.3   182  ARG182      0.0489
     32  CD         5.9740  -40.7450    4.0990 C.3   182  ARG182      0.2205
     33  NE         6.8920  -41.8770    3.9580 N.pl3 182  ARG182     -0.0865
     34  CZ         7.2730  -42.6680    4.9450 C.cat 182  ARG182      0.5346
     35  NH1        6.8620  -42.5030    6.1800 N.pl3 182  ARG182      0.1354
     36  NH2        8.0740  -43.6990    4.6650 N.pl3 182  ARG182      0.1354
     37  N         11.6460  -40.0380    7.1140 N.3   188  LEU188     -0.1245
     38  CA        12.7500  -41.0110    6.9670 C.3   188  LEU188      0.1561
     39  C         14.0430  -40.2300    7.1310 C.2   188  LEU188      0.2260
     40  O         14.2530  -39.2300    6.4340 O.2   188  LEU188     -0.2867
     41  CB        12.7140  -41.6940    5.6070 C.3   188  LEU188      0.0270
     42  CG        11.6530  -42.7430    5.3560 C.3   188  LEU188      0.0019
     43  CD1       11.4580  -43.0590    3.8830 C.3   188  LEU188      0.0001
     44  CD2       11.9600  -44.0500    6.1320 C.3   188  LEU188      0.0001
     45  N         18.2440  -40.6940    7.1440 N.3   190  TYR190     -0.1241
     46  CA        19.3950  -41.5650    6.8260 C.3   190  TYR190      0.1605
     47  C         20.6870  -40.8660    7.2680 C.2   190  TYR190      0.2264
     48  O         20.9520  -39.7360    6.8250 O.2   190  TYR190     -0.2867
     49  CB        19.4030  -41.7870    5.3200 C.3   190  TYR190      0.0534
     50  CG        18.1560  -42.5050    4.8020 C.ar  190  TYR190     -0.0201
     51  CD1       18.0360  -43.8450    4.9400 C.ar  190  TYR190     -0.0009
     52  CD2       17.1220  -41.8130    4.2110 C.ar  190  TYR190     -0.0009
     53  CE1       16.9110  -44.5190    4.4730 C.ar  190  TYR190      0.0417
     54  CE2       15.9770  -42.4760    3.7730 C.ar  190  TYR190      0.0417
     55  CZ        15.9140  -43.8280    3.8800 C.ar  190  TYR190      0.1957
     56  OH        14.7810  -44.4800    3.4260 O.3   190  TYR190     -0.2866
     57  N         25.7760  -42.0240    5.7890 N.3   193  ILE193     -0.1245
     58  CA        25.7650  -42.7030    4.4950 C.3   193  ILE193      0.1561
     59  C         27.1940  -42.7520    3.9500 C.2   193  ILE193      0.2260
     60  O         27.9140  -41.7450    3.9840 O.2   193  ILE193     -0.2867
     61  CB        24.8420  -42.0210    3.4520 C.3   193  ILE193      0.0252
     62  CG1       23.4160  -41.8150    3.9970 C.3   193  ILE193      0.0019
     63  CG2       24.8060  -42.8330    2.1930 C.3   193  ILE193      0.0019
     64  CD1       22.3860  -41.0010    3.0880 C.3   193  ILE193      0.0001
     65  N         20.0540  -48.7040    5.5570 N.3   214  LEU214     -0.1245
     66  CA        19.9000  -48.3480    4.1610 C.3   214  LEU214      0.1561
     67  C         20.9780  -49.1180    3.4060 C.2   214  LEU214      0.2260
     68  O         22.0960  -49.1960    3.8780 O.2   214  LEU214     -0.2867
     69  CB        20.1570  -46.8350    4.0200 C.3   214  LEU214      0.0270
     70  CG        19.7540  -46.0240    2.7710 C.3   214  LEU214      0.0019
     71  CD1       20.8610  -44.9860    2.4280 C.3   214  LEU214      0.0001
     72  CD2       19.2460  -46.8390    1.6110 C.3   214  LEU214      0.0001
     73  N         15.5830  -49.7500    2.0180 N.3   219  THR219     -0.1218
     74  CA        15.6140  -49.4240    3.3990 C.3   219  THR219      0.1862
     75  C         14.9770  -50.6300    4.1210 C.2   219  THR219      0.2287
     76  O         13.9630  -51.0830    3.6540 O.2   219  THR219     -0.2866
     77  CB        14.7310  -48.1890    3.6340 C.3   219  THR219      0.1770
     78  OG1       15.2610  -47.0590    2.8840 O.3   219  THR219     -0.2211
     79  CG2       14.6680  -47.8660    5.1010 C.3   219  THR219      0.0375
     80  N         11.4110  -50.7540    2.4930 N.3   234  ILE234     -0.1231
     81  CA        10.8750  -49.6760    1.6660 C.3   234  ILE234      0.1692
     82  C         11.7970  -49.5540    0.4620 C.2   234  ILE234      0.2593
     83  O         13.0090  -49.4360    0.6200 O.2   234  ILE234     -0.2718
     84  CB        10.7380  -48.3180    2.3910 C.3   234  ILE234      0.0266
     85  CG1       10.0170  -48.4830    3.7270 C.3   234  ILE234      0.0019
     86  CG2        9.9380  -47.2970    1.5070 C.3   234  ILE234      0.0020
     87  CD1        9.9950  -47.1870    4.7010 C.3   234  ILE234      0.0001
     88  N         11.1910  -49.6640   -0.7150 N.am  235  SER235     -0.1938
     89  CA        11.9400  -49.5420   -1.9590 C.3   235  SER235      0.2055
     90  C         12.2600  -48.0870   -2.1770 C.2   235  SER235      0.2643
     91  O         11.7120  -47.2080   -1.5250 O.2   235  SER235     -0.2714
     92  CB        11.1150  -50.0710   -3.1340 C.3   235  SER235      0.2130
     93  OG        10.0300  -49.2040   -3.4550 O.3   235  SER235     -0.2179
     94  N         13.1140  -47.8380   -3.1420 N.am  236  LYS236     -0.1963
     95  CA        13.4390  -46.4740   -3.5960 C.3   236  LYS236      0.1728
     96  C         12.2000  -45.6430   -3.9600 C.2   236  LYS236      0.2617
     97  O         12.1360  -44.4360   -3.6700 O.2   236  LYS236     -0.2715
     98  CB        14.3800  -46.5550   -4.8000 C.3   236  LYS236      0.0311
     99  CG        15.6120  -47.4710   -4.5900 C.3   236  LYS236      0.0038
    100  CD        15.5600  -48.7390   -5.4730 C.3   236  LYS236      0.0206
    101  CE        16.2940  -48.6140   -6.8320 C.3   236  LYS236      0.1093
    102  NZ        17.4890  -49.5310   -6.9200 N.3   236  LYS236     -0.1314
    103  N         11.2210  -46.2900   -4.5900 N.am  237  SER237     -0.1936
    104  CA         9.9750  -45.6720   -4.9880 C.3   237  SER237      0.2055
    105  C          8.9790  -45.4490   -3.8550 C.2   237  SER237      0.2643
    106  O          8.0150  -44.6810   -4.0100 O.2   237  SER237     -0.2714
    107  CB         9.3300  -46.5350   -6.0870 C.3   237  SER237      0.2130
    108  OG        10.0020  -47.7960   -6.2050 O.3   237  SER237     -0.2179
    109  N          9.2220  -46.0520   -2.6920 N.am  238  GLY238     -0.1954
    110  CA         8.3410  -45.8800   -1.5330 C.3   238  GLY238      0.1869
    111  C          7.4410  -47.0710   -1.2910 C.2   238  GLY238      0.2309
    112  O          6.5440  -46.9920   -0.4540 O.2   238  GLY238     -0.2863
@<TRIPOS>BOND
     1   102   101    1
     2   101   100    1
     3   108   107    1
     4   107   104    1
     5   100    99    1
     6   104   103    1
     7   104   105    1
     8    98    99    1
     9    98    95    1
    10   103    96   am
    11   106   105    2
    12    96    97    2
    13    96    95    1
    14   105   109   am
    15    95    94    1
    16    93    92    1
    17    94    90   am
    18    92    89    1
    19   109   110    1
    20    90    89    1
    21    90    91    2
    22    89    88    1
    23    17    16    1
    24   110   111    1
    25   111   112    2
    26     1     2    1
    27     5     2    1
    28     5     6    1
    29    88    82   am
    30    16    15    1
    31     8     6    1
    32     2     3    1
    33     7     6    1
    34    82    83    2
    35    82    81    1
    36    15    14    1
    37     3     4    2
    38    25    23    1
    39    86    84    1
    40    72    70    1
    41    81    84    1
    42    81    80    1
    43    14    13    1
    44    73    74    1
    45    23    22    1
    46    63    61    1
    47    84    85    1
    48    71    70    1
    49    24    22    1
    50    13    10    1
    51    70    69    1
    52    78    77    1
    53    64    62    1
    54    22    19    1
    55    74    77    1
    56    74    75    1
    57    67    68    2
    58    67    66    1
    59    56    55    1
    60    61    62    1
    61    61    58    1
    62    77    79    1
    63    76    75    2
    64    85    87    1
    65    54    55   ar
    66    54    52   ar
    67    10     9    1
    68    10    11    1
    69    55    53   ar
    70    43    42    1
    71    19    18    1
    72    19    20    1
    73    27    28    1
    74    27    30    1
    75    27    26    1
    76    59    60    2
    77    59    58    1
    78    33    32    1
    79    33    34    2
    80    69    66    1
    81    31    32    1
    82    31    30    1
    83    28    29    2
    84    66    65    1
    85    52    50   ar
    86    53    51   ar
    87    58    57    1
    88    36    34    1
    89    11    12    2
    90    50    51   ar
    91    50    49    1
    92    20    21    2
    93    34    35    1
    94    49    46    1
    95    42    41    1
    96    42    44    1
    97    41    38    1
    98    40    39    2
    99    48    47    2
   100    46    45    1
   101    46    47    1
   102    38    37    1
   103    38    39    1
