@<TRIPOS>MOLECULE
tmp/3ckaA01.pdb
 111 100 0 0 0
SMALL
GASTEIGER

@<TRIPOS>ATOM
      1  N         20.3830   -8.0840   -1.6080 N.3   166  GLU166     -0.1245
      2  CA        21.5880   -7.3190   -1.3640 C.3   166  GLU166      0.1567
      3  C         22.8220   -8.1230   -1.7300 C.2   166  GLU166      0.2260
      4  O         22.9930   -9.2700   -1.2760 O.2   166  GLU166     -0.2867
      5  CB        21.6090   -6.8610    0.0900 C.3   166  GLU166      0.0388
      6  CG        20.5400   -5.8000    0.3440 C.3   166  GLU166      0.1160
      7  CD        20.3950   -5.3910    1.8140 C.2   166  GLU166      0.3649
      8  OE1       20.5910   -6.2480    2.6890 O.co2 166  GLU166     -0.2457
      9  OE2       19.9730   -4.2100    2.0240 O.co2 166  GLU166     -0.2457
     10  N         27.1760   -7.8600   -1.6750 N.3   168  PHE168     -0.1241
     11  CA        28.3100   -7.2020   -0.9830 C.3   168  PHE168      0.1605
     12  C         29.6000   -7.5260   -1.7230 C.2   168  PHE168      0.2264
     13  O         29.6920   -8.6290   -2.2920 O.2   168  PHE168     -0.2867
     14  CB        28.3590   -7.6100    0.4950 C.3   168  PHE168      0.0534
     15  CG        27.0830   -7.2910    1.2100 C.ar  168  PHE168     -0.0203
     16  CD1       26.0350   -8.1580    1.1350 C.ar  168  PHE168     -0.0042
     17  CD2       26.9310   -6.1380    1.9530 C.ar  168  PHE168     -0.0042
     18  CE1       24.7870   -7.8970    1.7140 C.ar  168  PHE168     -0.0003
     19  CE2       25.6770   -5.8770    2.4940 C.ar  168  PHE168     -0.0003
     20  CZ        24.6310   -6.7860    2.3500 C.ar  168  PHE168     -0.0000
     21  N         28.1410   -3.0490    0.8600 N.3   174  LEU174     -0.1245
     22  CA        27.0070   -3.1560   -0.0710 C.3   174  LEU174      0.1561
     23  C         27.4030   -2.5830   -1.4630 C.2   174  LEU174      0.2260
     24  O         27.8500   -1.4360   -1.5720 O.2   174  LEU174     -0.2867
     25  CB        25.7890   -2.3900    0.4290 C.3   174  LEU174      0.0270
     26  CG        24.5020   -2.5470   -0.3520 C.3   174  LEU174      0.0019
     27  CD1       23.8340   -3.8670   -0.1440 C.3   174  LEU174      0.0001
     28  CD2       23.5340   -1.4900    0.1100 C.3   174  LEU174      0.0001
     29  N         21.7450   -3.4150   -4.7650 N.3   177  LYS177     -0.1245
     30  CA        20.5180   -3.6880   -3.9880 C.3   177  LYS177      0.1561
     31  C         19.3780   -3.6260   -4.9440 C.2   177  LYS177      0.2260
     32  O         19.2210   -2.6650   -5.6650 O.2   177  LYS177     -0.2867
     33  CB        20.3800   -2.6860   -2.8460 C.3   177  LYS177      0.0271
     34  CG        19.1720   -2.8820   -1.9430 C.3   177  LYS177      0.0035
     35  CD        19.1810   -1.8760   -0.8700 C.3   177  LYS177      0.0206
     36  CE        18.1070   -2.0830    0.1840 C.3   177  LYS177      0.1093
     37  NZ        18.2160   -0.9660    1.2470 N.3   177  LYS177     -0.1314
     38  N         15.1590   -4.0360   -4.9450 N.3   179  ILE179     -0.1245
     39  CA        13.9300   -4.0740   -4.1740 C.3   179  ILE179      0.1561
     40  C         12.7570   -4.3320   -5.1160 C.2   179  ILE179      0.2260
     41  O         12.6120   -3.6540   -6.1310 O.2   179  ILE179     -0.2867
     42  CB        13.7120   -2.7180   -3.4690 C.3   179  ILE179      0.0252
     43  CG1       14.9100   -2.3560   -2.5840 C.3   179  ILE179      0.0019
     44  CG2       12.4410   -2.7320   -2.6290 C.3   179  ILE179      0.0019
     45  CD1       14.8970   -0.9350   -2.0740 C.3   179  ILE179      0.0001
     46  N         13.0220   -1.0840   -7.4350 N.3   187  LEU187     -0.1245
     47  CA        14.1200   -0.1330   -7.3380 C.3   187  LEU187      0.1561
     48  C         15.3700   -0.9130   -7.5070 C.2   187  LEU187      0.2260
     49  O         15.5030   -1.9770   -6.9330 O.2   187  LEU187     -0.2867
     50  CB        14.1400    0.5940   -6.0220 C.3   187  LEU187      0.0270
     51  CG        13.1640    1.7450   -5.7420 C.3   187  LEU187      0.0019
     52  CD1       12.9430    2.0880   -4.2580 C.3   187  LEU187      0.0001
     53  CD2       13.6150    2.9800   -6.5750 C.3   187  LEU187      0.0001
     54  N         19.5460   -0.5300   -7.3940 N.3   189  TYR189     -0.1241
     55  CA        20.7030    0.3020   -7.0030 C.3   189  TYR189      0.1605
     56  C         21.9640   -0.4170   -7.4080 C.2   189  TYR189      0.2264
     57  O         22.1820   -1.5710   -7.0450 O.2   189  TYR189     -0.2867
     58  CB        20.6520    0.6180   -5.5360 C.3   189  TYR189      0.0534
     59  CG        19.4550    1.4270   -5.0790 C.ar  189  TYR189     -0.0201
     60  CD1       19.3430    2.7880   -5.3890 C.ar  189  TYR189     -0.0009
     61  CD2       18.3770    0.8280   -4.4100 C.ar  189  TYR189     -0.0009
     62  CE1       18.2830    3.5240   -4.9720 C.ar  189  TYR189      0.0417
     63  CE2       17.2820    1.5580   -4.0210 C.ar  189  TYR189      0.0417
     64  CZ        17.2630    2.9240   -4.2490 C.ar  189  TYR189      0.1957
     65  OH        16.2110    3.6920   -3.8160 O.3   189  TYR189     -0.2866
     66  N         27.2190    0.6810   -6.0070 N.3   192  ILE192     -0.1245
     67  CA        27.1480    1.3990   -4.7320 C.3   192  ILE192      0.1561
     68  C         28.5160    1.5330   -4.1600 C.2   192  ILE192      0.2260
     69  O         29.2930    0.5680   -4.1900 O.2   192  ILE192     -0.2867
     70  CB        26.1850    0.6980   -3.7400 C.3   192  ILE192      0.0252
     71  CG1       24.8020    0.5260   -4.3520 C.3   192  ILE192      0.0019
     72  CG2       26.0690    1.5720   -2.5060 C.3   192  ILE192      0.0019
     73  CD1       23.8150   -0.2650   -3.4790 C.3   192  ILE192      0.0001
     74  N         27.7650    5.0840    0.3440 N.3   196  GLY196     -0.1225
     75  CA        26.3440    4.8440    0.0640 C.3   196  GLY196      0.1811
     76  C         25.7960    5.4690   -1.1910 C.2   196  GLY196      0.2280
     77  O         24.5830    5.3460   -1.4240 O.2   196  GLY196     -0.2866
     78  N         21.6200    7.6860   -6.3210 N.3   213  LEU213     -0.1245
     79  CA        21.4750    7.3960   -4.9360 C.3   213  LEU213      0.1561
     80  C         22.5730    8.1570   -4.1480 C.2   213  LEU213      0.2260
     81  O         23.7110    8.1370   -4.5570 O.2   213  LEU213     -0.2867
     82  CB        21.6570    5.9020   -4.7390 C.3   213  LEU213      0.0270
     83  CG        21.7770    5.4480   -3.3140 C.3   213  LEU213      0.0019
     84  CD1       20.4400    5.5850   -2.5300 C.3   213  LEU213      0.0001
     85  CD2       22.3600    3.9690   -3.2490 C.3   213  LEU213      0.0001
     86  N         17.3140    9.0060   -2.7800 N.3   218  THR218     -0.1218
     87  CA        17.3340    8.6000   -4.1680 C.3   218  THR218      0.1862
     88  C         16.7360    9.7500   -4.9580 C.2   218  THR218      0.2287
     89  O         15.7460   10.3170   -4.4950 O.2   218  THR218     -0.2866
     90  CB        16.4710    7.3470   -4.3560 C.3   218  THR218      0.1770
     91  OG1       17.0970    6.2610   -3.6110 O.3   218  THR218     -0.2211
     92  CG2       16.4060    6.9310   -5.7590 C.3   218  THR218      0.0375
     93  N         13.1340    9.1630   -0.0140 N.3   234  SER234     -0.1202
     94  CA        13.9270    9.0600    1.1980 C.3   234  SER234      0.2020
     95  C         14.1310    7.6080    1.5570 C.2   234  SER234      0.2618
     96  O         13.5000    6.7210    0.9950 O.2   234  SER234     -0.2717
     97  CB        13.2550    9.8290    2.3260 C.3   234  SER234      0.2103
     98  OG        12.2150    9.0750    2.8900 O.3   234  SER234     -0.2182
     99  N         15.0140    7.3320    2.5240 N.am  235  LYS235     -0.1979
    100  CA        15.2570    5.9190    2.9020 C.3   235  LYS235      0.1596
    101  C         14.0340    5.3240    3.5760 C.2   235  LYS235      0.2287
    102  O         13.9010    4.1010    3.6350 O.2   235  LYS235     -0.2864
    103  CB        16.4850    5.7480    3.8030 C.3   235  LYS235      0.0298
    104  CG        17.8510    5.8480    3.0840 C.3   235  LYS235      0.0038
    105  CD        18.9060    5.0040    3.8810 C.3   235  LYS235      0.0206
    106  CE        20.3020    5.1500    3.3040 C.3   235  LYS235      0.1093
    107  NZ        21.4440    4.7170    4.2220 N.3   235  LYS235     -0.1314
    108  N         11.1550    5.7240    2.2040 N.3   237  GLY237     -0.1225
    109  CA        10.2700    5.4560    1.0730 C.3   237  GLY237      0.1811
    110  C          9.3730    6.6190    0.7310 C.2   237  GLY237      0.2280
    111  O          8.5470    6.4720   -0.1570 O.2   237  GLY237     -0.2866
@<TRIPOS>BOND
     1    48    47    1
     2    48    49    2
     3    46    47    1
     4    56    57    2
     5    56    55    1
     6    54    55    1
     7    47    50    1
     8    55    58    1
     9    53    51    1
    10    78    79    1
    11    41    40    2
    12    50    51    1
    13    66    67    1
    14    92    90    1
    15    51    52    1
    16    32    31    2
    17    58    59    1
    18    60    59   ar
    19    60    62   ar
    20    40    39    1
    21    59    61   ar
    22    62    64   ar
    23    88    89    2
    24    88    87    1
    25    38    39    1
    26    31    30    1
    27    79    82    1
    28    79    80    1
    29    29    30    1
    30    82    83    1
    31    67    68    1
    32    67    70    1
    33    81    80    2
    34    61    63   ar
    35    90    87    1
    36    90    91    1
    37    71    70    1
    38    71    73    1
    39    64    63   ar
    40    64    65    1
    41    69    68    2
    42    39    42    1
    43    87    86    1
    44    30    33    1
    45    70    72    1
    46    42    44    1
    47    42    43    1
    48    83    85    1
    49    83    84    1
    50    33    34    1
    51    43    45    1
    52    13    12    2
    53    34    35    1
    54     3     2    1
    55     3     4    2
    56    12    11    1
    57    10    11    1
    58     1     2    1
    59    24    23    2
    60    23    22    1
    61    77    76    2
    62     2     5    1
    63    76    75    1
    64    11    14    1
    65    35    36    1
    66    26    27    1
    67    26    28    1
    68    26    25    1
    69   111   110    2
    70    22    25    1
    71    22    21    1
    72    93    94    1
    73    75    74    1
    74     5     6    1
    75    36    37    1
    76     6     7    1
    77    14    15    1
    78   110   109    1
    79    96    95    2
    80   109   108    1
    81    16    15   ar
    82    16    18   ar
    83    94    95    1
    84    94    97    1
    85    15    17   ar
    86    95    99   am
    87    18    20   ar
    88     7     9   ar
    89     7     8   ar
    90    17    19   ar
    91    97    98    1
    92    20    19   ar
    93    99   100    1
    94   100   101    1
    95   100   103    1
    96   104   103    1
    97   104   105    1
    98   106   105    1
    99   106   107    1
   100   101   102    2
