@<TRIPOS>MOLECULE
tmp/3ckbA00.pdb
 140 138 0 0 0
SMALL
GASTEIGER

@<TRIPOS>ATOM
      1  N         13.5950  -25.9590   -6.6800 N.3    26  ASP26      -0.1225
      2  CA        13.8320  -25.4610   -5.3330 C.3    26  ASP26       0.1805
      3  C         12.4710  -25.3480   -4.6400 C.2    26  ASP26       0.2597
      4  O         11.4820  -25.9210   -5.1080 O.2    26  ASP26      -0.2718
      5  CB        14.5150  -24.0890   -5.3890 C.3    26  ASP26       0.1424
      6  CG        15.4590  -23.8570   -4.2160 C.2    26  ASP26       0.3668
      7  OD1       15.0950  -24.2110   -3.0700 O.co2  26  ASP26      -0.2456
      8  OD2       16.5610  -23.3110   -4.4440 O.co2  26  ASP26      -0.2456
      9  N         12.4120  -24.6100   -3.5360 N.am   27  GLU27      -0.1979
     10  CA        11.1610  -24.4520   -2.8050 C.3    27  GLU27       0.1602
     11  C         10.1010  -23.6830   -3.5940 C.2    27  GLU27       0.2287
     12  O         10.3120  -22.5320   -3.9900 O.2    27  GLU27      -0.2864
     13  CB        11.4010  -23.7390   -1.4720 C.3    27  GLU27       0.0415
     14  CG        12.5480  -24.3060   -0.6470 C.3    27  GLU27       0.1163
     15  CD        12.4860  -23.8860    0.8200 C.2    27  GLU27       0.3649
     16  OE1       12.0540  -22.7490    1.1100 O.co2  27  GLU27      -0.2457
     17  OE2       12.8890  -24.6950    1.6830 O.co2  27  GLU27      -0.2457
     18  N          9.0010  -23.9510   -6.6670 N.3    29  GLU29      -0.1245
     19  CA         9.1940  -23.6740   -8.0900 C.3    29  GLU29       0.1567
     20  C          8.1550  -24.2700   -9.0440 C.2    29  GLU29       0.2260
     21  O          7.9730  -23.7640  -10.1520 O.2    29  GLU29      -0.2867
     22  CB        10.5850  -24.1240   -8.5350 C.3    29  GLU29       0.0388
     23  CG        11.7150  -23.3520   -7.9020 C.3    29  GLU29       0.1160
     24  CD        12.8500  -23.1130   -8.8700 C.2    29  GLU29       0.3649
     25  OE1       12.7260  -22.1900   -9.7080 O.co2  29  GLU29      -0.2457
     26  OE2       13.8560  -23.8540   -8.7950 O.co2  29  GLU29      -0.2457
     27  N          4.1320  -19.0810  -10.1810 N.3    34  ARG34      -0.1245
     28  CA         5.4890  -18.8130  -10.6490 C.3    34  ARG34       0.1563
     29  C          5.7300  -19.2910  -12.0840 C.2    34  ARG34       0.2260
     30  O          6.1890  -18.5200  -12.9310 O.2    34  ARG34      -0.2867
     31  CB         6.5110  -19.4510   -9.7060 C.3    34  ARG34       0.0307
     32  CG         6.4210  -18.9290   -8.2830 C.3    34  ARG34       0.0489
     33  CD         7.5320  -19.4690   -7.3990 C.3    34  ARG34       0.2205
     34  NE         7.2820  -19.1820   -5.9860 N.pl3  34  ARG34      -0.0865
     35  CZ         8.1050  -19.5080   -4.9950 C.cat  34  ARG34       0.5346
     36  NH1        9.2460  -20.1330   -5.2540 N.pl3  34  ARG34       0.1354
     37  NH2        7.7820  -19.2110   -3.7420 N.pl3  34  ARG34       0.1354
     38  N         15.5850  -11.6570  -15.4290 N.3    49  TRP49      -0.1241
     39  CA        16.0030  -12.4850  -14.3070 C.3    49  TRP49       0.1605
     40  C         17.4950  -12.2060  -14.1680 C.2    49  TRP49       0.2264
     41  O         18.2460  -12.3420  -15.1350 O.2    49  TRP49      -0.2867
     42  CB        15.7340  -13.9600  -14.6130 C.3    49  TRP49       0.0550
     43  CG        16.0520  -14.8880  -13.4860 C.ar   49  TRP49       0.0003
     44  CD1       17.1790  -15.6410  -13.3370 C.ar   49  TRP49       0.0946
     45  CD2       15.2340  -15.1600  -12.3410 C.ar   49  TRP49       0.0152
     46  NE1       17.1150  -16.3680  -12.1710 N.ar   49  TRP49      -0.2442
     47  CE2       15.9320  -16.0900  -11.5400 C.ar   49  TRP49       0.0810
     48  CE3       13.9790  -14.7040  -11.9120 C.ar   49  TRP49       0.0012
     49  CZ2       15.4160  -16.5770  -10.3360 C.ar   49  TRP49       0.0191
     50  CZ3       13.4640  -15.1900  -10.7110 C.ar   49  TRP49       0.0001
     51  CH2       14.1850  -16.1160   -9.9380 C.ar   49  TRP49       0.0015
     52  N         19.9220  -13.7990  -12.4600 N.3    51  TRP51      -0.1241
     53  CA        20.8550  -14.9190  -12.4710 C.3    51  TRP51       0.1605
     54  C         20.7720  -15.7290  -13.7500 C.2    51  TRP51       0.2264
     55  O         20.1600  -16.7920  -13.7890 O.2    51  TRP51      -0.2867
     56  CB        20.6000  -15.8090  -11.2550 C.3    51  TRP51       0.0550
     57  CG        20.5100  -15.0000  -10.0160 C.ar   51  TRP51       0.0003
     58  CD1       19.3820  -14.4460   -9.4770 C.ar   51  TRP51       0.0946
     59  CD2       21.6040  -14.5420   -9.2180 C.ar   51  TRP51       0.0152
     60  NE1       19.7080  -13.6650   -8.3950 N.ar   51  TRP51      -0.2442
     61  CE2       21.0650  -13.7060   -8.2120 C.ar   51  TRP51       0.0810
     62  CE3       22.9900  -14.7540   -9.2560 C.ar   51  TRP51       0.0012
     63  CZ2       21.8670  -13.0810   -7.2490 C.ar   51  TRP51       0.0191
     64  CZ3       23.7870  -14.1320   -8.2990 C.ar   51  TRP51       0.0001
     65  CH2       23.2190  -13.3040   -7.3080 C.ar   51  TRP51       0.0015
     66  N         22.6790  -17.6880  -15.0470 N.3    53  LYS53      -0.1231
     67  CA        23.2710  -19.0210  -15.0050 C.3    53  LYS53       0.1693
     68  C         22.2410  -20.0950  -14.6580 C.2    53  LYS53       0.2592
     69  O         22.4140  -21.2640  -15.0160 O.2    53  LYS53      -0.2718
     70  CB        24.4320  -19.0620  -14.0070 C.3    53  LYS53       0.0285
     71  CG        25.6740  -18.3250  -14.5030 C.3    53  LYS53       0.0035
     72  CD        26.7360  -18.1950  -13.4090 C.3    53  LYS53       0.0206
     73  CE        27.9000  -17.3180  -13.8750 C.3    53  LYS53       0.1093
     74  NZ        28.8280  -16.9660  -12.7550 N.3    53  LYS53      -0.1314
     75  N         21.1730  -19.7070  -13.9590 N.am   54  ASN54      -0.1974
     76  CA        20.1210  -20.6590  -13.5990 C.3    54  ASN54       0.1688
     77  C         19.6930  -21.3770  -14.8780 C.2    54  ASN54       0.2292
     78  O         19.6810  -20.7810  -15.9580 O.2    54  ASN54      -0.2864
     79  CB        18.9110  -19.9400  -12.9840 C.3    54  ASN54       0.1181
     80  CG        19.1780  -19.4180  -11.5710 C.2    54  ASN54       0.2629
     81  OD1       18.2980  -18.8220  -10.9420 O.2    54  ASN54      -0.2716
     82  ND2       20.3890  -19.6390  -11.0710 N.am   54  ASN54      -0.0877
     83  N          7.0810  -19.7350    2.5270 N.3   248  ASN248     -0.1240
     84  CA         8.0040  -19.6140    1.4090 C.3   248  ASN248      0.1653
     85  C          7.5710  -20.3040    0.1190 C.2   248  ASN248      0.2266
     86  O          8.2660  -20.2270   -0.8920 O.2   248  ASN248     -0.2867
     87  CB         9.3640  -20.1540    1.8500 C.3   248  ASN248      0.1155
     88  CG        10.5140  -19.4930    1.1310 C.2   248  ASN248      0.2627
     89  OD1       10.5820  -18.2670    1.0430 O.2   248  ASN248     -0.2716
     90  ND2       11.4370  -20.2990    0.6260 N.am  248  ASN248     -0.0877
     91  N          7.4520  -14.9490   -4.1460 N.3   254  TYR254     -0.1241
     92  CA         8.2520  -14.7880   -5.3540 C.3   254  TYR254      0.1605
     93  C          8.2270  -13.3220   -5.8140 C.2   254  TYR254      0.2264
     94  O          9.2500  -12.7620   -6.1940 O.2   254  TYR254     -0.2867
     95  CB         7.6670  -15.6970   -6.4400 C.3   254  TYR254      0.0534
     96  CG         8.4750  -15.8230   -7.7080 C.ar  254  TYR254     -0.0201
     97  CD1        9.6500  -16.5750   -7.7380 C.ar  254  TYR254     -0.0009
     98  CD2        8.0470  -15.2170   -8.8920 C.ar  254  TYR254     -0.0009
     99  CE1       10.3780  -16.7260   -8.9140 C.ar  254  TYR254      0.0417
    100  CE2        8.7690  -15.3570  -10.0750 C.ar  254  TYR254      0.0417
    101  CZ         9.9320  -16.1140  -10.0800 C.ar  254  TYR254      0.1957
    102  OH        10.6480  -16.2660  -11.2430 O.3   254  TYR254     -0.2866
    103  N         14.4430  -11.3790    3.5280 N.3   271  ASN271     -0.1225
    104  CA        15.2040  -12.0500    2.4930 C.3   271  ASN271      0.1785
    105  C         14.8930  -11.6000    1.0730 C.2   271  ASN271      0.2598
    106  O         13.9010  -12.0180    0.4740 O.2   271  ASN271     -0.2718
    107  CB        15.0070  -13.5650    2.6300 C.3   271  ASN271      0.1169
    108  CG        15.7910  -14.3610    1.5940 C.2   271  ASN271      0.2627
    109  OD1       16.7860  -13.8810    1.0440 O.2   271  ASN271     -0.2716
    110  ND2       15.3560  -15.5960    1.3420 N.am  271  ASN271     -0.0877
    111  N         15.7540  -10.7350    0.5450 N.am  272  GLY272     -0.1942
    112  CA        15.5910  -10.2550   -0.8120 C.3   272  GLY272      0.2014
    113  C         16.4260  -11.1490   -1.7110 C.2   272  GLY272      0.2639
    114  O         17.6340  -11.2780   -1.5050 O.2   272  GLY272     -0.2714
    115  N         15.7890  -11.7720   -2.6980 N.am  273  TRP273     -0.1959
    116  CA        16.4840  -12.6720   -3.6170 C.3   273  TRP273      0.1771
    117  C         17.2230  -11.9480   -4.7380 C.2   273  TRP273      0.2620
    118  O         18.0530  -12.5440   -5.4140 O.2   273  TRP273     -0.2715
    119  CB        15.4910  -13.6440   -4.2620 C.3   273  TRP273      0.0590
    120  CG        14.6470  -14.4240   -3.3100 C.ar  273  TRP273      0.0006
    121  CD1       14.7630  -14.4750   -1.9530 C.ar  273  TRP273      0.0946
    122  CD2       13.5670  -15.2950   -3.6540 C.ar  273  TRP273      0.0152
    123  NE1       13.8210  -15.3280   -1.4270 N.ar  273  TRP273     -0.2442
    124  CE2       13.0750  -15.8460   -2.4510 C.ar  273  TRP273      0.0810
    125  CE3       12.9670  -15.6690   -4.8670 C.ar  273  TRP273      0.0012
    126  CZ2       12.0110  -16.7490   -2.4220 C.ar  273  TRP273      0.0191
    127  CZ3       11.9070  -16.5680   -4.8370 C.ar  273  TRP273      0.0001
    128  CH2       11.4430  -17.0990   -3.6220 C.ar  273  TRP273      0.0015
    129  N         16.9120  -10.6710   -4.9380 N.am  274  SER274     -0.1936
    130  CA        17.5190   -9.8810   -6.0050 C.3   274  SER274      0.2055
    131  C         17.5200  -10.6800   -7.3110 C.2   274  SER274      0.2643
    132  O         18.5680  -10.9460   -7.8930 O.2   274  SER274     -0.2714
    133  CB        18.9480   -9.4540   -5.6300 C.3   274  SER274      0.2130
    134  OG        19.7940  -10.5670   -5.4130 O.3   274  SER274     -0.2179
    135  N         16.3250  -11.0510   -7.7660 N.am  275  CYS275     -0.1967
    136  CA        16.1630  -11.8350   -8.9830 C.3   275  CYS275      0.1712
    137  C         15.4710  -11.1000  -10.1190 C.2   275  CYS275      0.2296
    138  O         15.8510  -11.2360  -11.2820 O.2   275  CYS275     -0.2864
    139  CB        15.3460  -13.1010   -8.7000 C.3   275  CYS275      0.0983
    140  SG        16.1300  -14.3140   -7.6530 S.3   275  CYS275     -0.0798
@<TRIPOS>BOND
     1    78    77    2
     2    38    39    1
     3    41    40    2
     4    66    67    1
     5    69    68    2
     6    67    68    1
     7    67    70    1
     8    77    76    1
     9    68    75   am
    10    42    39    1
    11    42    43    1
    12    71    70    1
    13    71    72    1
    14    39    40    1
    15    75    76    1
    16    73    72    1
    17    73    74    1
    18    55    54    2
    19    54    53    1
    20    76    79    1
    21    43    44   ar
    22    43    45   ar
    23    44    46   ar
    24    79    80    1
    25    30    29    2
    26    53    52    1
    27    53    56    1
    28    45    48   ar
    29    45    47   ar
    30    46    47   ar
    31    29    28    1
    32    48    50   ar
    33    80    82   am
    34    80    81    2
    35    47    49   ar
    36   138   137    2
    37    56    57    1
    38   102   101    1
    39    50    51   ar
    40    28    27    1
    41    28    31    1
    42    49    51   ar
    43    21    20    2
    44   137   136    1
    45   101   100   ar
    46   101    99   ar
    47   100    98   ar
    48    57    58   ar
    49    57    59   ar
    50    25    24   ar
    51    31    32    1
    52    58    60   ar
    53    62    59   ar
    54    62    64   ar
    55    59    61   ar
    56    20    19    1
    57   136   139    1
    58   136   135    1
    59    99    97   ar
    60    98    96   ar
    61    24    26   ar
    62    24    23    1
    63   139   140    1
    64    22    19    1
    65    22    23    1
    66    60    61   ar
    67    64    65   ar
    68    32    33    1
    69    61    63   ar
    70    19    18    1
    71   132   131    2
    72   135   131   am
    73    97    96   ar
    74    96    95    1
    75    33    34    1
    76   131   130    1
    77    65    63   ar
    78     1     2    1
    79    95    92    1
    80    94    93    2
    81   130   133    1
    82   130   129    1
    83    34    35    2
    84    93    92    1
    85   133   134    1
    86   118   117    2
    87     5     2    1
    88     5     6    1
    89    92    91    1
    90     2     3    1
    91    36    35    1
    92     4     3    2
    93    35    37    1
    94   129   117   am
    95   125   127   ar
    96   125   122   ar
    97   127   128   ar
    98   117   116    1
    99     3     9   am
   100     8     6   ar
   101   119   116    1
   102   119   120    1
   103     6     7   ar
   104    12    11    2
   105   122   120   ar
   106   122   124   ar
   107   128   126   ar
   108   116   115    1
   109    11    10    1
   110     9    10    1
   111   120   121   ar
   112    10    13    1
   113   115   113   am
   114   124   126   ar
   115   124   123   ar
   116   121   123   ar
   117   113   114    2
   118   113   112    1
   119    13    14    1
   120    86    85    2
   121   112   111    1
   122    14    15    1
   123    85    84    1
   124   106   105    2
   125   111   105   am
   126    90    88   am
   127    15    16   ar
   128    15    17   ar
   129    89    88    2
   130   109   108    2
   131   105   104    1
   132    88    87    1
   133   110   108   am
   134    84    87    1
   135    84    83    1
   136   108   107    1
   137   104   107    1
   138   104   103    1
