@<TRIPOS>MOLECULE
tmp/3ckeB00.pdb
 173 164 0 0 0
SMALL
GASTEIGER

@<TRIPOS>ATOM
      1  N         -4.1830  -93.0480   18.9920 N.3    51  VAL51      -0.1245
      2  CA        -3.3600  -91.8540   19.0680 C.3    51  VAL51       0.1561
      3  C         -2.1490  -92.1900   19.9230 C.2    51  VAL51       0.2260
      4  O         -1.0070  -91.8880   19.5690 O.2    51  VAL51      -0.2867
      5  CB        -4.1380  -90.6930   19.7210 C.3    51  VAL51       0.0252
      6  CG1       -3.1850  -89.7470   20.4220 C.3    51  VAL51       0.0019
      7  CG2       -4.9260  -89.9410   18.6550 C.3    51  VAL51       0.0019
      8  N          2.1420  -92.4450   19.3360 N.3    55  TYR55      -0.1241
      9  CA         3.1210  -91.6940   20.1220 C.3    55  TYR55       0.1605
     10  C          4.1410  -92.5730   20.8170 C.2    55  TYR55       0.2264
     11  O          5.3110  -92.1950   20.9410 O.2    55  TYR55      -0.2867
     12  CB         2.4290  -90.8230   21.1770 C.3    55  TYR55       0.0534
     13  CG         1.9850  -89.4810   20.6420 C.ar   55  TYR55      -0.0201
     14  CD1        0.8620  -89.3720   19.8260 C.ar   55  TYR55      -0.0009
     15  CD2        2.7220  -88.3230   20.9090 C.ar   55  TYR55      -0.0009
     16  CE1        0.4810  -88.1470   19.2830 C.ar   55  TYR55       0.0417
     17  CE2        2.3500  -87.0930   20.3680 C.ar   55  TYR55       0.0417
     18  CZ         1.2280  -87.0160   19.5560 C.ar   55  TYR55       0.1957
     19  OH         0.8560  -85.8150   19.0020 O.3    55  TYR55      -0.2866
     20  N         -4.2140  -91.5390   28.8280 N.3    71  LEU71      -0.1245
     21  CA        -4.4550  -90.4530   27.8920 C.3    71  LEU71       0.1561
     22  C         -5.9340  -90.3550   27.5640 C.2    71  LEU71       0.2260
     23  O         -6.4870  -89.2540   27.4790 O.2    71  LEU71      -0.2867
     24  CB        -3.6510  -90.6610   26.6080 C.3    71  LEU71       0.0270
     25  CG        -2.1310  -90.7220   26.7800 C.3    71  LEU71       0.0019
     26  CD1       -1.4690  -90.6180   25.4130 C.3    71  LEU71       0.0001
     27  CD2       -1.6630  -89.5920   27.6820 C.3    71  LEU71       0.0001
     28  N         -7.6670  -88.5110   30.2020 N.3    74  LEU74      -0.1231
     29  CA        -7.1800  -87.1330   30.2080 C.3    74  LEU74       0.1693
     30  C         -7.8130  -86.3480   29.0590 C.2    74  LEU74       0.2592
     31  O         -8.1420  -85.1740   29.2140 O.2    74  LEU74      -0.2718
     32  CB        -5.6480  -87.0940   30.1110 C.3    74  LEU74       0.0284
     33  CG        -4.9060  -87.5080   31.3900 C.3    74  LEU74       0.0019
     34  CD1       -3.4050  -87.4400   31.1880 C.3    74  LEU74       0.0001
     35  CD2       -5.3190  -86.5890   32.5270 C.3    74  LEU74       0.0001
     36  N         -7.9880  -87.0010   27.9140 N.am   75  PHE75      -0.1976
     37  CA        -8.6130  -86.3710   26.7550 C.3    75  PHE75       0.1639
     38  C        -10.0850  -86.1010   27.0540 C.2    75  PHE75       0.2290
     39  O        -10.6220  -85.0520   26.7060 O.2    75  PHE75      -0.2864
     40  CB        -8.5120  -87.2790   25.5230 C.3    75  PHE75       0.0560
     41  CG        -7.3170  -87.0010   24.6470 C.ar   75  PHE75      -0.0200
     42  CD1       -6.3220  -87.9580   24.4790 C.ar   75  PHE75      -0.0042
     43  CD2       -7.2050  -85.7920   23.9610 C.ar   75  PHE75      -0.0042
     44  CE1       -5.2310  -87.7180   23.6350 C.ar   75  PHE75      -0.0003
     45  CE2       -6.1190  -85.5420   23.1150 C.ar   75  PHE75      -0.0003
     46  CZ        -5.1310  -86.5080   22.9530 C.ar   75  PHE75      -0.0000
     47  N        -10.4730  -83.4060   29.5850 N.3    78  ASP78      -0.1239
     48  CA       -10.1370  -82.1410   28.9470 C.3    78  ASP78       0.1674
     49  C        -11.3430  -81.5790   28.2100 C.2    78  ASP78       0.2266
     50  O        -11.5100  -80.3620   28.1220 O.2    78  ASP78      -0.2867
     51  CB        -8.9850  -82.3190   27.9610 C.3    78  ASP78       0.1410
     52  CG        -8.3690  -80.9960   27.5430 C.2    78  ASP78       0.3668
     53  OD1       -7.6090  -80.4170   28.3490 O.co2  78  ASP78      -0.2456
     54  OD2       -8.6530  -80.5280   26.4180 O.co2  78  ASP78      -0.2456
     55  N          0.2690  -81.6930   34.9970 N.3   141  PHE141     -0.1241
     56  CA        -0.4870  -81.5180   33.7680 C.3   141  PHE141      0.1605
     57  C         -1.9350  -81.1630   34.0800 C.2   141  PHE141      0.2264
     58  O         -2.4640  -80.1650   33.5900 O.2   141  PHE141     -0.2867
     59  CB        -0.4540  -82.8050   32.9320 C.3   141  PHE141      0.0534
     60  CG        -1.3080  -82.7440   31.6950 C.ar  141  PHE141     -0.0203
     61  CD1       -0.8680  -82.0640   30.5630 C.ar  141  PHE141     -0.0042
     62  CD2       -2.5770  -83.3110   31.6840 C.ar  141  PHE141     -0.0042
     63  CE1       -1.6800  -81.9430   29.4360 C.ar  141  PHE141     -0.0003
     64  CE2       -3.4020  -83.1980   30.5640 C.ar  141  PHE141     -0.0003
     65  CZ        -2.9500  -82.5090   29.4360 C.ar  141  PHE141     -0.0000
     66  N         -4.2980  -77.8150   33.1230 N.3   145  GLN145     -0.1245
     67  CA        -5.4760  -77.8140   32.2560 C.3   145  GLN145      0.1566
     68  C         -6.4690  -76.6960   32.5850 C.2   145  GLN145      0.2260
     69  O         -7.3290  -76.3690   31.7680 O.2   145  GLN145     -0.2867
     70  CB        -6.2000  -79.1590   32.3400 C.3   145  GLN145      0.0367
     71  CG        -5.4960  -80.3000   31.6390 C.3   145  GLN145      0.0905
     72  CD        -6.2940  -81.5840   31.7010 C.2   145  GLN145      0.2608
     73  OE1       -6.4730  -82.1670   32.7720 O.2   145  GLN145     -0.2717
     74  NE2       -6.7910  -82.0270   30.5510 N.am  145  GLN145     -0.0878
     75  N          7.0610  -77.1370   28.3730 N.3   166  ASP166     -0.1239
     76  CA         5.6610  -77.5280   28.2540 C.3   166  ASP166      0.1674
     77  C          5.4000  -78.7710   29.0950 C.2   166  ASP166      0.2266
     78  O          6.0930  -79.7790   28.9610 O.2   166  ASP166     -0.2867
     79  CB         5.2990  -77.8090   26.7940 C.3   166  ASP166      0.1410
     80  CG         3.8080  -78.0380   26.5980 C.2   166  ASP166      0.3668
     81  OD1        3.0350  -77.0650   26.7270 O.co2 166  ASP166     -0.2456
     82  OD2        3.4040  -79.1890   26.3240 O.co2 166  ASP166     -0.2456
     83  N          2.7060  -80.6180   28.9830 N.3   168  GLY168     -0.1210
     84  CA         2.0550  -81.6400   28.1920 C.3   168  GLY168      0.1956
     85  C          3.1040  -82.5510   27.5780 C.2   168  GLY168      0.2611
     86  O          2.9370  -83.7690   27.5520 O.2   168  GLY168     -0.2717
     87  N          4.1890  -81.9630   27.0810 N.am  169  LYS169     -0.1979
     88  CA         5.2770  -82.7370   26.4830 C.3   169  LYS169      0.1596
     89  C          6.0770  -83.4480   27.5820 C.2   169  LYS169      0.2287
     90  O          6.5970  -84.5470   27.3750 O.2   169  LYS169     -0.2864
     91  CB         6.2080  -81.8250   25.6710 C.3   169  LYS169      0.0298
     92  CG         5.5020  -80.9520   24.6250 C.3   169  LYS169      0.0038
     93  CD         4.5820  -81.7590   23.7170 C.3   169  LYS169      0.0206
     94  CE         4.0290  -80.9230   22.5580 C.3   169  LYS169      0.1093
     95  NZ         3.2700  -79.7070   22.9840 N.3   169  LYS169     -0.1314
     96  N          4.7950  -84.5660   30.2160 N.3   171  LEU171     -0.1231
     97  CA         3.9350  -85.6800   30.5690 C.3   171  LEU171      0.1693
     98  C          4.1550  -86.8350   29.5980 C.2   171  LEU171      0.2591
     99  O          4.2120  -87.9870   30.0090 O.2   171  LEU171     -0.2718
    100  CB         2.4650  -85.2460   30.5420 C.3   171  LEU171      0.0284
    101  CG         1.4470  -86.3760   30.7260 C.3   171  LEU171      0.0019
    102  CD1        1.6910  -87.0820   32.0590 C.3   171  LEU171      0.0001
    103  CD2        0.0410  -85.8160   30.6580 C.3   171  LEU171      0.0001
    104  N          4.2820  -86.5150   28.3110 N.am  172  LEU172     -0.1980
    105  CA         4.5050  -87.5250   27.2790 C.3   172  LEU172      0.1596
    106  C          5.8280  -88.2560   27.4390 C.2   172  LEU172      0.2287
    107  O          5.9080  -89.4590   27.2180 O.2   172  LEU172     -0.2864
    108  CB         4.4640  -86.8970   25.8880 C.3   172  LEU172      0.0297
    109  CG         3.1010  -86.4840   25.3460 C.3   172  LEU172      0.0022
    110  CD1        3.2590  -85.9450   23.9200 C.3   172  LEU172      0.0001
    111  CD2        2.1640  -87.6880   25.3680 C.3   172  LEU172      0.0001
    112  N          2.6290  -78.7240   16.3230 N.3   207  ASN207     -0.1240
    113  CA         1.2410  -78.5540   16.7190 C.3   207  ASN207      0.1653
    114  C          0.7830  -77.1650   16.2760 C.2   207  ASN207      0.2266
    115  O         -0.3060  -77.0160   15.7330 O.2   207  ASN207     -0.2867
    116  CB         1.0930  -78.7170   18.2310 C.3   207  ASN207      0.1155
    117  CG         1.3880  -80.1310   18.6950 C.2   207  ASN207      0.2627
    118  OD1        1.6000  -80.3760   19.8790 O.2   207  ASN207     -0.2716
    119  ND2        1.3950  -81.0730   17.7580 N.am  207  ASN207     -0.0877
    120  N         -7.1130  -72.0800   16.0230 N.3   215  GLU215     -0.1245
    121  CA        -6.9900  -70.9970   16.9920 C.3   215  GLU215      0.1567
    122  C         -7.3560  -69.6300   16.4190 C.2   215  GLU215      0.2260
    123  O         -7.8880  -68.7780   17.1320 O.2   215  GLU215     -0.2867
    124  CB        -5.5650  -70.9540   17.5460 C.3   215  GLU215      0.0388
    125  CG        -5.0880  -72.2810   18.0970 C.3   215  GLU215      0.1160
    126  CD        -3.7240  -72.1840   18.7370 C.2   215  GLU215      0.3649
    127  OE1       -3.6050  -71.5060   19.7810 O.co2 215  GLU215     -0.2457
    128  OE2       -2.7690  -72.7810   18.1960 O.co2 215  GLU215     -0.2457
    129  N          3.8210  -87.2390   16.4450 N.3   285  ASN285     -0.1240
    130  CA         3.1150  -85.9900   16.6970 C.3   285  ASN285      0.1653
    131  C          2.7860  -85.2900   15.3800 C.2   285  ASN285      0.2266
    132  O          1.7470  -84.6440   15.2520 O.2   285  ASN285     -0.2867
    133  CB         3.9820  -85.0800   17.5660 C.3   285  ASN285      0.1155
    134  CG         3.3400  -83.7440   17.8310 C.2   285  ASN285      0.2627
    135  OD1        2.3440  -83.6500   18.5470 O.2   285  ASN285     -0.2716
    136  ND2        3.9020  -82.6960   17.2480 N.am  285  ASN285     -0.0877
    137  N         -0.1230  -87.1090   13.5580 N.3   288  TRP288     -0.1241
    138  CA        -1.2960  -86.8020   14.3590 C.3   288  TRP288      0.1605
    139  C         -1.7800  -85.3800   14.0680 C.2   288  TRP288      0.2264
    140  O         -2.9500  -85.1640   13.7600 O.2   288  TRP288     -0.2867
    141  CB        -0.9630  -86.9390   15.8430 C.3   288  TRP288      0.0550
    142  CG        -2.1050  -86.5850   16.7350 C.ar  288  TRP288      0.0003
    143  CD1       -3.1800  -87.3700   17.0450 C.ar  288  TRP288      0.0946
    144  CD2       -2.3260  -85.3270   17.3840 C.ar  288  TRP288      0.0152
    145  NE1       -4.0560  -86.6770   17.8440 N.ar  288  TRP288     -0.2442
    146  CE2       -3.5570  -85.4210   18.0670 C.ar  288  TRP288      0.0810
    147  CE3       -1.6040  -84.1290   17.4520 C.ar  288  TRP288      0.0012
    148  CZ2       -4.0850  -84.3580   18.8100 C.ar  288  TRP288      0.0191
    149  CZ3       -2.1320  -83.0680   18.1910 C.ar  288  TRP288      0.0001
    150  CH2       -3.3600  -83.1940   18.8590 C.ar  288  TRP288      0.0015
    151  N         -9.1950  -82.5320   16.2610 N.3   294  ARG294     -0.1231
    152  CA        -9.1220  -81.4670   17.2560 C.3   294  ARG294      0.1694
    153  C         -8.7180  -80.1810   16.5440 C.2   294  ARG294      0.2592
    154  O         -9.1520  -79.0910   16.9140 O.2   294  ARG294     -0.2718
    155  CB        -8.0850  -81.7990   18.3440 C.3   294  ARG294      0.0321
    156  CG        -7.8030  -80.6410   19.3000 C.3   294  ARG294      0.0489
    157  CD        -6.6640  -80.9490   20.2630 C.3   294  ARG294      0.2205
    158  NE        -7.0810  -81.8720   21.3080 N.pl3 294  ARG294     -0.0865
    159  CZ        -7.3890  -81.5100   22.5470 C.cat 294  ARG294      0.5346
    160  NH1       -7.3210  -80.2370   22.9110 N.pl3 294  ARG294      0.1354
    161  NH2       -7.7800  -82.4260   23.4210 N.pl3 294  ARG294      0.1354
    162  N         -7.8900  -80.3170   15.5140 N.am  295  TYR295     -0.1976
    163  CA        -7.4200  -79.1640   14.7560 C.3   295  TYR295      0.1639
    164  C         -8.2960  -78.8680   13.5490 C.2   295  TYR295      0.2290
    165  O         -7.9730  -78.0040   12.7340 O.2   295  TYR295     -0.2864
    166  CB        -5.9780  -79.3930   14.3030 C.3   295  TYR295      0.0560
    167  CG        -4.9910  -79.4780   15.4410 C.ar  295  TYR295     -0.0198
    168  CD1       -3.6990  -79.9540   15.2310 C.ar  295  TYR295     -0.0009
    169  CD2       -5.3420  -79.0720   16.7310 C.ar  295  TYR295     -0.0009
    170  CE1       -2.7750  -80.0260   16.2790 C.ar  295  TYR295      0.0417
    171  CE2       -4.4270  -79.1390   17.7880 C.ar  295  TYR295      0.0417
    172  CZ        -3.1460  -79.6180   17.5520 C.ar  295  TYR295      0.1957
    173  OH        -2.2400  -79.6910   18.5840 O.3   295  TYR295     -0.2866
@<TRIPOS>BOND
     1   165   164    2
     2   164   163    1
     3   137   138    1
     4   140   139    2
     5   139   138    1
     6   166   163    1
     7   166   167    1
     8   138   141    1
     9   163   162    1
    10   168   167   ar
    11   168   170   ar
    12   132   131    2
    13   131   130    1
    14   167   169   ar
    15   162   153   am
    16   115   114    2
    17   141   142    1
    18   120   121    1
    19   151   152    1
    20   114   113    1
    21   170   172   ar
    22   112   113    1
    23   122   121    1
    24   122   123    2
    25   129   130    1
    26   153   154    2
    27   153   152    1
    28   130   133    1
    29   113   116    1
    30   169   171   ar
    31   142   143   ar
    32   142   144   ar
    33   121   124    1
    34   143   145   ar
    35   136   134   am
    36   152   155    1
    37   144   147   ar
    38   144   146   ar
    39   147   149   ar
    40   124   125    1
    41   172   171   ar
    42   172   173    1
    43   133   134    1
    44   119   117   am
    45   134   135    2
    46   145   146   ar
    47   146   148   ar
    48   125   126    1
    49   149   150   ar
    50   128   126   ar
    51   116   117    1
    52   155   156    1
    53     7     5    1
    54   117   118    2
    55   126   127   ar
    56   148   150   ar
    57     1     2    1
    58    19    18    1
    59     2     5    1
    60     2     3    1
    61    16    18   ar
    62    16    14   ar
    63   156   157    1
    64     8     9    1
    65    18    17   ar
    66     4     3    2
    67     5     6    1
    68    14    13   ar
    69     9    10    1
    70     9    12    1
    71   157   158    1
    72    17    15   ar
    73    13    15   ar
    74    13    12    1
    75    10    11    2
    76   158   159    2
    77   159   160    1
    78   159   161    1
    79    94    95    1
    80    94    93    1
    81    46    45   ar
    82    46    44   ar
    83    45    43   ar
    84    44    42   ar
    85    93    92    1
    86   110   109    1
    87    43    41   ar
    88    42    41   ar
    89    92    91    1
    90    41    40    1
    91   109   111    1
    92   109   108    1
    93    26    25    1
    94    40    37    1
    95    91    88    1
    96   108   105    1
    97    82    80   ar
    98    54    52   ar
    99    88    87    1
   100    88    89    1
   101    80    81   ar
   102    80    79    1
   103    24    25    1
   104    24    21    1
   105    39    38    2
   106    37    38    1
   107    37    36    1
   108    25    27    1
   109    79    76    1
   110    87    85   am
   111   107   106    2
   112   105   106    1
   113   105   104    1
   114    90    89    2
   115    23    22    2
   116    52    51    1
   117    52    53   ar
   118    86    85    2
   119    22    21    1
   120    85    84    1
   121    21    20    1
   122    36    30   am
   123    51    48    1
   124    50    49    2
   125    84    83    1
   126    49    48    1
   127    76    75    1
   128    76    77    1
   129   104    98   am
   130    48    47    1
   131    78    77    2
   132    30    31    2
   133    30    29    1
   134    63    65   ar
   135    63    61   ar
   136    65    64   ar
   137    98    99    2
   138    98    97    1
   139    32    29    1
   140    32    33    1
   141    28    29    1
   142    96    97    1
   143   100    97    1
   144   100   101    1
   145    74    72   am
   146    61    60   ar
   147    64    62   ar
   148   103   101    1
   149   101   102    1
   150    34    33    1
   151    33    35    1
   152    71    72    1
   153    71    70    1
   154    62    60   ar
   155    60    59    1
   156    72    73    2
   157    69    68    2
   158    67    70    1
   159    67    68    1
   160    67    66    1
   161    59    56    1
   162    58    57    2
   163    56    57    1
   164    56    55    1
