@<TRIPOS>MOLECULE
tmp/3ckjA00.pdb
 142 132 0 0 0
SMALL
GASTEIGER

@<TRIPOS>ATOM
      1  N         10.1540   31.4540   12.3790 N.3   105  LYS105     -0.1245
      2  CA        10.4470   30.7560   13.6260 C.3   105  LYS105      0.1561
      3  C         11.5160   31.4650   14.4730 C.2   105  LYS105      0.2260
      4  O         11.3290   31.6080   15.7000 O.2   105  LYS105     -0.2867
      5  CB        10.8740   29.3080   13.3440 C.3   105  LYS105      0.0271
      6  CG        10.9180   28.4460   14.6060 C.3   105  LYS105      0.0035
      7  CD        11.4410   27.0290   14.2600 C.3   105  LYS105      0.0206
      8  CE        11.3240   26.0650   15.4610 C.3   105  LYS105      0.1093
      9  NZ        11.9080   24.7350   15.0950 N.3   105  LYS105     -0.1314
     10  N         10.0310   21.5840   20.4830 N.3   125  ASP125     -0.1239
     11  CA         9.0170   21.9080   19.4850 C.3   125  ASP125      0.1674
     12  C          7.6610   21.3670   19.9200 C.2   125  ASP125      0.2266
     13  O          7.5650   20.3000   20.5450 O.2   125  ASP125     -0.2867
     14  CB         9.3970   21.4000   18.1010 C.3   125  ASP125      0.1410
     15  CG        10.2590   22.4030   17.3260 C.2   125  ASP125      0.3668
     16  OD1       10.1710   23.6300   17.5650 O.co2 125  ASP125     -0.2456
     17  OD2       11.0160   21.9530   16.4590 O.co2 125  ASP125     -0.2456
     18  N         18.4890   11.7740   17.7000 N.3   156  TYR156     -0.1241
     19  CA        17.3560   10.8750   17.8870 C.3   156  TYR156      0.1605
     20  C         17.2140   10.0530   16.6600 C.2   156  TYR156      0.2264
     21  O         17.7590   10.3710   15.5920 O.2   156  TYR156     -0.2867
     22  CB        16.0510   11.6620   18.0900 C.3   156  TYR156      0.0534
     23  CG        16.0660   12.9620   17.3620 C.ar  156  TYR156     -0.0201
     24  CD1       16.3640   14.1450   18.0520 C.ar  156  TYR156     -0.0009
     25  CD2       15.8280   13.0370   15.9800 C.ar  156  TYR156     -0.0009
     26  CE1       16.4200   15.3500   17.4180 C.ar  156  TYR156      0.0417
     27  CE2       15.8950   14.2920   15.3110 C.ar  156  TYR156      0.0417
     28  CZ        16.1860   15.4330   16.0690 C.ar  156  TYR156      0.1957
     29  OH        16.2590   16.6720   15.5170 O.3   156  TYR156     -0.2866
     30  N         14.6890    8.7570   13.9930 N.3   158  ARG158     -0.1245
     31  CA        13.4470    9.0330   13.2980 C.3   158  ARG158      0.1563
     32  C         12.6410    7.7580   13.2030 C.2   158  ARG158      0.2260
     33  O         13.1140    6.7650   12.6270 O.2   158  ARG158     -0.2867
     34  CB        13.7510    9.5850   11.9030 C.3   158  ARG158      0.0307
     35  CG        13.8980   11.0970   11.8430 C.3   158  ARG158      0.0489
     36  CD        13.8620   11.6100   10.3950 C.3   158  ARG158      0.2205
     37  NE        15.0260   11.1950    9.6160 N.pl3 158  ARG158     -0.0865
     38  CZ        16.2290   11.7520    9.7110 C.cat 158  ARG158      0.5346
     39  NH1       16.4410   12.7580   10.5540 N.pl3 158  ARG158      0.1354
     40  NH2       17.2290   11.2920    8.9770 N.pl3 158  ARG158      0.1354
     41  N         13.8520   14.6690    7.8490 N.3   160  GLY160     -0.1210
     42  CA        15.2900   14.4930    7.7260 C.3   160  GLY160      0.1956
     43  C         15.9270   14.9290    6.4060 C.2   160  GLY160      0.2612
     44  O         17.1410   15.0210    6.3520 O.2   160  GLY160     -0.2717
     45  N         15.1400   15.1920    5.3600 N.am  161  ARG161     -0.1965
     46  CA        15.7360   15.4870    4.0340 C.3   161  ARG161      0.1729
     47  C         16.5770   16.7430    4.0320 C.2   161  ARG161      0.2616
     48  O         17.6940   16.7300    3.4840 O.2   161  ARG161     -0.2715
     49  CB        14.6640   15.6110    2.9370 C.3   161  ARG161      0.0348
     50  CG        13.9580   14.3400    2.6080 C.3   161  ARG161      0.0492
     51  CD        12.8290   14.6990    1.6570 C.3   161  ARG161      0.2205
     52  NE        11.8990   13.5900    1.4860 N.pl3 161  ARG161     -0.0865
     53  CZ        11.1440   13.4020    0.4070 C.cat 161  ARG161      0.5346
     54  NH1       11.2140   14.2510   -0.6190 N.pl3 161  ARG161      0.1354
     55  NH2       10.3300   12.3510    0.3450 N.pl3 161  ARG161      0.1354
     56  N         16.0930   17.8280    4.6610 N.am  162  VAL162     -0.1963
     57  CA        16.8730   19.0800    4.6720 C.3   162  VAL162      0.1727
     58  C         18.0930   18.8800    5.5580 C.2   162  VAL162      0.2616
     59  O         19.2000   19.3230    5.2430 O.2   162  VAL162     -0.2715
     60  CB        16.0550   20.2830    5.1430 C.3   162  VAL162      0.0290
     61  CG1       16.9430   21.5570    5.1660 C.3   162  VAL162      0.0023
     62  CG2       14.8590   20.4680    4.2200 C.3   162  VAL162      0.0023
     63  N         17.9350   18.1280    6.6530 N.am  163  THR163     -0.1951
     64  CA        19.1080   17.8530    7.4770 C.3   163  THR163      0.1897
     65  C         20.1840   17.0550    6.7020 C.2   163  THR163      0.2313
     66  O         21.3770   17.4410    6.7140 O.2   163  THR163     -0.2863
     67  CB        18.7070   17.0310    8.7700 C.3   163  THR163      0.1794
     68  OG1       17.9830   17.9360    9.6260 O.3   163  THR163     -0.2208
     69  CG2       19.9890   16.5790    9.5290 C.3   163  THR163      0.0378
     70  N         22.2350   16.0820   14.3520 N.3   183  GLN183     -0.1245
     71  CA        20.9590   16.7440   14.0510 C.3   183  GLN183      0.1566
     72  C         21.0960   18.2490   14.2180 C.2   183  GLN183      0.2260
     73  O         20.5260   18.8630   15.1580 O.2   183  GLN183     -0.2867
     74  CB        19.8230   16.2000   14.9470 C.3   183  GLN183      0.0367
     75  CG        19.5140   14.7410   14.7530 C.3   183  GLN183      0.0905
     76  CD        19.0210   14.3940   13.3700 C.2   183  GLN183      0.2608
     77  OE1       18.5310   15.2420   12.6380 O.2   183  GLN183     -0.2717
     78  NE2       19.1260   13.1270   13.0260 N.am  183  GLN183     -0.0878
     79  N         19.7310   20.7590   12.7710 N.3   185  LEU185     -0.1231
     80  CA        18.5030   21.5280   12.6050 C.3   185  LEU185      0.1693
     81  C         17.4690   21.2360   13.6750 C.2   185  LEU185      0.2593
     82  O         16.3750   21.8480   13.6630 O.2   185  LEU185     -0.2718
     83  CB        17.8580   21.2380   11.2340 C.3   185  LEU185      0.0284
     84  CG        18.7100   21.5960   10.0270 C.3   185  LEU185      0.0019
     85  CD1       17.8940   21.3910    8.7400 C.3   185  LEU185      0.0001
     86  CD2       19.3980   23.0200   10.1000 C.3   185  LEU185      0.0001
     87  N         17.7750   20.2830   14.5610 N.am  186  GLY186     -0.1942
     88  CA        16.8120   19.8410   15.5780 C.3   186  GLY186      0.2014
     89  C         16.2830   20.9410   16.4850 C.2   186  GLY186      0.2639
     90  O         17.0360   21.8020   16.9200 O.2   186  GLY186     -0.2714
     91  N         14.9740   20.8980   16.7300 N.am  187  GLY187     -0.1954
     92  CA        14.2850   21.8600   17.5940 C.3   187  GLY187      0.1869
     93  C         14.3480   21.5570   19.0800 C.2   187  GLY187      0.2309
     94  O         13.7930   22.3180   19.8950 O.2   187  GLY187     -0.2863
     95  N         12.2530    9.6870   18.4950 N.3   232  ARG232     -0.1245
     96  CA        11.5270   10.9490   18.6000 C.3   232  ARG232      0.1563
     97  C         10.5390   11.0470   17.4480 C.2   232  ARG232      0.2260
     98  O         10.9500   11.1520   16.3020 O.2   232  ARG232     -0.2867
     99  CB        12.5050   12.1250   18.5590 C.3   232  ARG232      0.0307
    100  CG        11.8460   13.5280   18.6800 C.3   232  ARG232      0.0489
    101  CD        12.6470   14.6050   17.9910 C.3   232  ARG232      0.2205
    102  NE        12.5720   14.4750   16.5370 N.pl3 232  ARG232     -0.0865
    103  CZ        12.7200   15.4690   15.6670 C.cat 232  ARG232      0.5346
    104  NH1       12.9400   16.7280   16.0750 N.pl3 232  ARG232      0.1354
    105  NH2       12.6410   15.2130   14.3650 N.pl3 232  ARG232      0.1354
    106  N          7.2780   13.0850   15.5660 N.3   234  HIS234     -0.1241
    107  CA         6.7230   14.4210   15.3910 C.3   234  HIS234      0.1621
    108  C          5.8010   14.4310   14.1660 C.2   234  HIS234      0.2264
    109  O          5.6930   13.4160   13.4620 O.2   234  HIS234     -0.2867
    110  CB         7.8580   15.4340   15.2770 C.3   234  HIS234      0.0745
    111  CG         8.5610   15.4250   13.9540 C.ar  234  HIS234      0.0817
    112  ND1        9.2690   16.5150   13.4900 N.ar  234  HIS234     -0.2268
    113  CD2        8.6540   14.4770   12.9910 C.ar  234  HIS234      0.1154
    114  CE1        9.7730   16.2350   12.3010 C.ar  234  HIS234      0.1986
    115  NE2        9.4050   15.0080   11.9720 N.ar  234  HIS234     -0.2212
    116  N          6.3980   17.6390    8.4090 N.3   237  ARG237     -0.1245
    117  CA         6.4280   18.9770    7.7860 C.3   237  ARG237      0.1563
    118  C          6.0290   18.8420    6.3000 C.2   237  ARG237      0.2260
    119  O          6.4830   17.9120    5.6120 O.2   237  ARG237     -0.2867
    120  CB         7.7920   19.6550    7.9500 C.3   237  ARG237      0.0307
    121  CG         8.3570   19.6380    9.3480 C.3   237  ARG237      0.0489
    122  CD         7.4640   20.3710   10.3460 C.3   237  ARG237      0.2205
    123  NE         8.2640   20.8940   11.4510 N.pl3 237  ARG237     -0.0865
    124  CZ         8.9190   22.0500   11.4350 C.cat 237  ARG237      0.5346
    125  NH1        8.8590   22.8520   10.3810 N.pl3 237  ARG237      0.1354
    126  NH2        9.6410   22.4050   12.4960 N.pl3 237  ARG237      0.1354
    127  N          9.8410   22.2930    1.9080 N.3   242  LEU242     -0.1245
    128  CA        11.2300   21.8790    2.1250 C.3   242  LEU242      0.1561
    129  C         12.2380   22.6880    1.3140 C.2   242  LEU242      0.2260
    130  O         13.3210   22.9610    1.8040 O.2   242  LEU242     -0.2867
    131  CB        11.3920   20.3820    1.8610 C.3   242  LEU242      0.0270
    132  CG        10.5950   19.4340    2.7740 C.3   242  LEU242      0.0019
    133  CD1       11.0490   18.0410    2.5150 C.3   242  LEU242      0.0001
    134  CD2       10.7740   19.8410    4.2670 C.3   242  LEU242      0.0001
    135  N         12.6960   25.9230    3.1620 N.3   245  MET245     -0.1245
    136  CA        13.4690   25.6780    4.3850 C.3   245  MET245      0.1570
    137  C         14.9710   25.5610    4.0330 C.2   245  MET245      0.2261
    138  O         15.8320   26.1590    4.6700 O.2   245  MET245     -0.2867
    139  CB        12.9770   24.3860    5.0240 C.3   245  MET245      0.0387
    140  CG        13.6650   24.1490    6.3540 C.3   245  MET245      0.0595
    141  SD        13.2250   22.5780    7.0570 S.3   245  MET245     -0.1393
    142  CE        11.4380   22.5410    6.6460 C.3   245  MET245      0.0692
@<TRIPOS>BOND
     1    54    53    1
     2    55    53    1
     3    53    52    2
     4   129   130    2
     5   129   128    1
     6    52    51    1
     7    51    50    1
     8   131   128    1
     9   131   132    1
    10   127   128    1
    11   133   132    1
    12    50    49    1
    13   132   134    1
    14    49    46    1
    15   135   136    1
    16    48    47    2
    17    47    46    1
    18    47    56   am
    19   137   136    1
    20   137   138    2
    21    46    45    1
    22    62    60    1
    23   136   139    1
    24    56    57    1
    25    57    60    1
    26    57    58    1
    27   139   140    1
    28    60    61    1
    29    59    58    2
    30    45    43   am
    31    58    63   am
    32   119   118    2
    33   118   117    1
    34    44    43    2
    35   140   141    1
    36    43    42    1
    37   142   141    1
    38    63    64    1
    39    65    66    2
    40    65    64    1
    41    64    67    1
    42    42    41    1
    43   117   120    1
    44   117   116    1
    45   120   121    1
    46    85    84    1
    47    67    69    1
    48    67    68    1
    49    40    38    1
    50   121   122    1
    51    37    38    2
    52    37    36    1
    53    38    39    1
    54    84    86    1
    55    84    83    1
    56   122   123    1
    57   125   124    1
    58    36    35    1
    59    83    80    1
    60   124   123    2
    61   124   126    1
    62    35    34    1
    63    34    31    1
    64   115   114   ar
    65   115   113   ar
    66   114   112   ar
    67     1     2    1
    68    80    79    1
    69    80    81    1
    70    33    32    2
    71    77    76    2
    72   113   111   ar
    73    78    76   am
    74    32    31    1
    75    31    30    1
    76     5     2    1
    77     5     6    1
    78    76    75    1
    79   109   108    2
    80   112   111   ar
    81     2     3    1
    82    82    81    2
    83    81    87   am
    84   111   110    1
    85    71    72    1
    86    71    70    1
    87    71    74    1
    88   108   107    1
    89    72    73    2
    90     7     6    1
    91     7     8    1
    92   105   103    1
    93     3     4    2
    94    87    88    1
    95    75    74    1
    96     9     8    1
    97   110   107    1
    98    27    25   ar
    99    27    28   ar
   100   107   106    1
   101    29    28    1
   102    88    89    1
   103    21    20    2
   104   103   104    1
   105   103   102    2
   106    25    23   ar
   107    28    26   ar
   108    98    97    2
   109    17    15   ar
   110    89    91   am
   111    89    90    2
   112   102   101    1
   113    20    19    1
   114    91    92    1
   115    15    16   ar
   116    15    14    1
   117    23    24   ar
   118    23    22    1
   119    26    24   ar
   120    97    96    1
   121    92    93    1
   122    18    19    1
   123    19    22    1
   124   101   100    1
   125    14    11    1
   126    95    96    1
   127    99    96    1
   128    99   100    1
   129    93    94    2
   130    11    12    1
   131    11    10    1
   132    12    13    2
