@<TRIPOS>MOLECULE
tmp/3ckjA01.pdb
 94 88 0 0 0
SMALL
GASTEIGER

@<TRIPOS>ATOM
      1  N          7.9550   26.9030   21.1500 N.3    41  PRO41      -0.2102
      2  CA         7.4500   27.7670   20.0700 C.3    41  PRO41       0.1504
      3  C          6.2270   27.0740   19.4650 C.2    41  PRO41       0.2576
      4  O          6.1920   25.8390   19.3770 O.2    41  PRO41      -0.2718
      5  CB         8.6170   27.8570   19.0860 C.3    41  PRO41       0.0282
      6  CG         9.4950   26.6970   19.4060 C.3    41  PRO41       0.0208
      7  CD         9.2380   26.2480   20.8030 C.3    41  PRO41       0.0893
      8  N          5.1930   27.8400   19.1240 N.am   42  ALA42      -0.1966
      9  CA         3.9710   27.2240   18.5860 C.3    42  ALA42       0.1728
     10  C          3.3360   28.0740   17.5040 C.2    42  ALA42       0.2616
     11  O          3.2000   29.2880   17.6570 O.2    42  ALA42      -0.2715
     12  CB         2.9840   26.9600   19.6880 C.3    42  ALA42       0.0334
     13  N          2.9720   27.4290   16.4020 N.am   43  LEU43      -0.1977
     14  CA         2.2000   28.0630   15.3450 C.3    43  LEU43       0.1596
     15  C          1.2220   26.9930   14.8420 C.2    43  LEU43       0.2287
     16  O          1.6340   26.0310   14.1990 O.2    43  LEU43      -0.2864
     17  CB         3.0990   28.5640   14.2210 C.3    43  LEU43       0.0297
     18  CG         2.3540   29.1680   13.0260 C.3    43  LEU43       0.0022
     19  CD1        1.4220   30.3010   13.4570 C.3    43  LEU43       0.0001
     20  CD2        3.3160   29.6520   11.9900 C.3    43  LEU43       0.0001
     21  N         -0.6950   24.5320   16.3630 N.3    45  GLU45      -0.1245
     22  CA        -0.2800   23.2300   16.8780 C.3    45  GLU45       0.1567
     23  C         -1.2890   22.6550   17.8840 C.2    45  GLU45       0.2260
     24  O         -0.8980   21.9770   18.8390 O.2    45  GLU45      -0.2867
     25  CB         1.1140   23.3400   17.5340 C.3    45  GLU45       0.0388
     26  CG         2.2580   23.8480   16.6320 C.3    45  GLU45       0.1160
     27  CD         2.6180   22.9030   15.4940 C.2    45  GLU45       0.3649
     28  OE1        2.1260   21.7490   15.4890 O.co2  45  GLU45      -0.2457
     29  OE2        3.3990   23.3180   14.5990 O.co2  45  GLU45      -0.2457
     30  N          3.1680   32.0530   17.9590 N.3    72  SER72      -0.1217
     31  CA         3.6910   32.8300   16.8250 C.3    72  SER72       0.1889
     32  C          2.6100   33.2310   15.8130 C.2    72  SER72       0.2288
     33  O          2.8520   33.2840   14.6020 O.2    72  SER72      -0.2866
     34  CB         4.8560   32.0980   16.1420 C.3    72  SER72       0.2089
     35  OG         5.6650   31.4320   17.1000 O.3    72  SER72      -0.2183
     36  N         10.1540   31.4540   12.3790 N.3   105  LYS105     -0.1245
     37  CA        10.4470   30.7560   13.6260 C.3   105  LYS105      0.1561
     38  C         11.5160   31.4650   14.4730 C.2   105  LYS105      0.2260
     39  O         11.3290   31.6080   15.7000 O.2   105  LYS105     -0.2867
     40  CB        10.8740   29.3080   13.3440 C.3   105  LYS105      0.0271
     41  CG        10.9180   28.4460   14.6060 C.3   105  LYS105      0.0035
     42  CD        11.4410   27.0290   14.2600 C.3   105  LYS105      0.0206
     43  CE        11.3240   26.0650   15.4610 C.3   105  LYS105      0.1093
     44  NZ        11.9080   24.7350   15.0950 N.3   105  LYS105     -0.1314
     45  N         10.2920   34.1330   16.7780 N.3   108  ALA108     -0.1245
     46  CA         9.6290   33.6200   17.9610 C.3   108  ALA108      0.1562
     47  C         10.6210   33.1780   19.0280 C.2   108  ALA108      0.2260
     48  O         10.3990   33.4430   20.2070 O.2   108  ALA108     -0.2867
     49  CB         8.6470   32.4320   17.6100 C.3   108  ALA108      0.0290
     50  N         10.0310   21.5840   20.4830 N.3   125  ASP125     -0.1225
     51  CA         9.0170   21.9080   19.4850 C.3   125  ASP125      0.1805
     52  C          7.6610   21.3670   19.9200 C.2   125  ASP125      0.2598
     53  O          7.5650   20.3000   20.5450 O.2   125  ASP125     -0.2718
     54  CB         9.3970   21.4000   18.1010 C.3   125  ASP125      0.1424
     55  CG        10.2590   22.4030   17.3260 C.2   125  ASP125      0.3668
     56  OD1       10.1710   23.6300   17.5650 O.co2 125  ASP125     -0.2456
     57  OD2       11.0160   21.9530   16.4590 O.co2 125  ASP125     -0.2456
     58  N          6.6140   22.1180   19.5960 N.am  126  SER126     -0.1938
     59  CA         5.2700   21.7840   20.0800 C.3   126  SER126      0.2055
     60  C          4.5090   20.8430   19.1300 C.2   126  SER126      0.2643
     61  O          3.3320   20.5710   19.3390 O.2   126  SER126     -0.2714
     62  CB         4.4940   23.0740   20.3560 C.3   126  SER126      0.2130
     63  OG         4.4750   23.8510   19.1880 O.3   126  SER126     -0.2179
     64  N          5.2060   20.3540   18.1010 N.am  127  ASP127     -0.1971
     65  CA         4.6840   19.3410   17.1950 C.3   127  ASP127      0.1709
     66  C          5.3040   17.9560   17.4040 C.2   127  ASP127      0.2293
     67  O          5.1840   17.0910   16.5450 O.2   127  ASP127     -0.2864
     68  CB         4.7840   19.7740   15.7260 C.3   127  ASP127      0.1436
     69  CG         6.2130   19.9540   15.2370 C.2   127  ASP127      0.3671
     70  OD1        7.1830   19.7940   16.0150 O.co2 127  ASP127     -0.2456
     71  OD2        6.3580   20.2880   14.0410 O.co2 127  ASP127     -0.2456
     72  N         13.5420   29.5690    9.3620 N.3   205  TYR205     -0.1241
     73  CA        14.1170   28.2580    9.6270 C.3   205  TYR205      0.1605
     74  C         15.6300   28.2100    9.7660 C.2   205  TYR205      0.2264
     75  O         16.2070   27.1170    9.8850 O.2   205  TYR205     -0.2867
     76  CB        13.6750   27.3220    8.4750 C.3   205  TYR205      0.0534
     77  CG        12.2080   27.0420    8.5330 C.ar  205  TYR205     -0.0201
     78  CD1       11.4010   27.1860    7.4020 C.ar  205  TYR205     -0.0009
     79  CD2       11.6230   26.6230    9.7260 C.ar  205  TYR205     -0.0009
     80  CE1       10.0090   26.8920    7.4600 C.ar  205  TYR205      0.0417
     81  CE2       10.2630   26.3550    9.8080 C.ar  205  TYR205      0.0417
     82  CZ         9.4700   26.4780    8.6740 C.ar  205  TYR205      0.1957
     83  OH         8.1370   26.2130    8.8000 O.3   205  TYR205     -0.2866
     84  N          6.3980   17.6390    8.4090 N.3   237  ARG237     -0.1245
     85  CA         6.4280   18.9770    7.7860 C.3   237  ARG237      0.1563
     86  C          6.0290   18.8420    6.3000 C.2   237  ARG237      0.2260
     87  O          6.4830   17.9120    5.6120 O.2   237  ARG237     -0.2867
     88  CB         7.7920   19.6550    7.9500 C.3   237  ARG237      0.0307
     89  CG         8.3570   19.6380    9.3480 C.3   237  ARG237      0.0489
     90  CD         7.4640   20.3710   10.3460 C.3   237  ARG237      0.2205
     91  NE         8.2640   20.8940   11.4510 N.pl3 237  ARG237     -0.0865
     92  CZ         8.9190   22.0500   11.4350 C.cat 237  ARG237      0.5346
     93  NH1        8.8590   22.8520   10.3810 N.pl3 237  ARG237      0.1354
     94  NH2        9.6410   22.4050   12.4960 N.pl3 237  ARG237      0.1354
@<TRIPOS>BOND
     1    87    86    2
     2    86    85    1
     3    78    80   ar
     4    78    77   ar
     5    80    82   ar
     6    85    88    1
     7    85    84    1
     8    88    89    1
     9    76    77    1
    10    76    73    1
    11    77    79   ar
    12    82    83    1
    13    82    81   ar
    14    89    90    1
    15    72    73    1
    16    73    74    1
    17    79    81   ar
    18    74    75    2
    19    90    91    1
    20    93    92    1
    21    92    91    2
    22    92    94    1
    23    20    18    1
    24    36    37    1
    25    18    19    1
    26    18    17    1
    27    40    37    1
    28    40    41    1
    29    37    38    1
    30    71    69   ar
    31    16    15    2
    32    17    14    1
    33    42    41    1
    34    42    43    1
    35    38    39    2
    36    29    27   ar
    37    33    32    2
    38    15    14    1
    39    44    43    1
    40    69    68    1
    41    69    70   ar
    42    14    13    1
    43    28    27   ar
    44    27    26    1
    45    68    65    1
    46    32    31    1
    47    34    31    1
    48    34    35    1
    49    21    22    1
    50    13    10   am
    51    57    55   ar
    52    67    66    2
    53    26    25    1
    54    45    46    1
    55    31    30    1
    56    22    25    1
    57    22    23    1
    58    65    66    1
    59    65    64    1
    60    55    56   ar
    61    55    54    1
    62    10    11    2
    63    10     9    1
    64    49    46    1
    65    23    24    2
    66    46    47    1
    67    64    60   am
    68    54    51    1
    69     9     8    1
    70     9    12    1
    71    47    48    2
    72     5     6    1
    73     5     2    1
    74     8     3   am
    75    60    61    2
    76    60    59    1
    77    63    62    1
    78     4     3    2
    79     6     7    1
    80     3     2    1
    81    51    52    1
    82    51    50    1
    83    58    52   am
    84    58    59    1
    85    52    53    2
    86     2     1    1
    87    59    62    1
    88     7     1    1
