@<TRIPOS>MOLECULE
tmp/3cklB01.pdb
 188 182 0 0 0
SMALL
GASTEIGER

@<TRIPOS>ATOM
      1  N        -62.0000   18.3910  -17.6960 N.3    48  LYS48      -0.1231
      2  CA       -61.9760   17.5440  -16.5160 C.3    48  LYS48       0.1693
      3  C        -63.3620   17.1550  -16.0300 C.2    48  LYS48       0.2593
      4  O        -63.5460   16.7850  -14.8590 O.2    48  LYS48      -0.2718
      5  CB       -61.1710   18.2110  -15.3700 C.3    48  LYS48       0.0285
      6  CG       -59.8110   18.8430  -15.7700 C.3    48  LYS48       0.0035
      7  CD       -58.9920   17.9820  -16.7960 C.3    48  LYS48       0.0206
      8  CE       -58.5320   16.6490  -16.1870 C.3    48  LYS48       0.1093
      9  NZ       -57.9960   15.6880  -17.2670 N.3    48  LYS48      -0.1314
     10  N        -64.3250   17.2330  -16.9410 N.am   49  SER49      -0.1938
     11  CA       -65.7070   17.0040  -16.6250 C.3    49  SER49       0.2055
     12  C        -66.1890   15.6450  -17.0820 C.2    49  SER49       0.2644
     13  O        -67.3700   15.3850  -16.9830 O.2    49  SER49      -0.2714
     14  CB       -66.5700   18.0920  -17.2490 C.3    49  SER49       0.2130
     15  OG       -66.1530   19.3490  -16.7670 O.3    49  SER49      -0.2179
     16  N        -65.2600   14.7920  -17.5480 N.am   50  GLY50      -0.1939
     17  CA       -65.5600   13.4210  -17.9950 C.3    50  GLY50       0.2014
     18  C        -65.5910   13.1810  -19.5050 C.2    50  GLY50       0.2640
     19  O        -66.3630   12.3400  -19.9670 O.2    50  GLY50      -0.2714
     20  N        -64.7790   13.9280  -20.2640 N.am   51  THR51      -0.1936
     21  CA       -64.7350   13.8450  -21.7220 C.3    51  THR51       0.2028
     22  C        -64.3040   12.4390  -22.2160 C.2    51  THR51       0.2643
     23  O        -64.9300   11.8350  -23.1170 O.2    51  THR51      -0.2714
     24  CB       -63.6970   14.8300  -22.3400 C.3    51  THR51       0.1808
     25  OG1      -63.5990   16.0300  -21.5580 O.3    51  THR51      -0.2208
     26  CG2      -64.0760   15.1750  -23.7850 C.3    51  THR51       0.0379
     27  N        -63.1980   11.9620  -21.6530 N.am   52  THR52      -0.1936
     28  CA       -62.6760   10.6270  -21.9830 C.3    52  THR52       0.2028
     29  C        -63.6980    9.5560  -21.6630 C.2    52  THR52       0.2642
     30  O        -63.9550    8.6570  -22.4710 O.2    52  THR52      -0.2714
     31  CB       -61.3500   10.3610  -21.2490 C.3    52  THR52       0.1808
     32  OG1      -60.5000   11.5050  -21.4170 O.3    52  THR52      -0.2208
     33  CG2      -60.6440    9.1550  -21.8200 C.3    52  THR52       0.0379
     34  N        -64.2890    9.6510  -20.4890 N.am   53  TRP53      -0.1973
     35  CA       -65.3400    8.7220  -20.0810 C.3    53  TRP53       0.1640
     36  C        -66.4600    8.5970  -21.1260 C.2    53  TRP53       0.2290
     37  O        -66.7860    7.5120  -21.6110 O.2    53  TRP53      -0.2864
     38  CB       -65.9330    9.2100  -18.7550 C.3    53  TRP53       0.0576
     39  CG       -66.8460    8.2360  -18.0770 C.ar   53  TRP53       0.0006
     40  CD1      -67.0540    6.9180  -18.4010 C.ar   53  TRP53       0.0946
     41  CD2      -67.6270    8.4930  -16.9040 C.ar   53  TRP53       0.0152
     42  NE1      -67.9200    6.3510  -17.4970 N.ar   53  TRP53      -0.2442
     43  CE2      -68.2840    7.2980  -16.5680 C.ar   53  TRP53       0.0810
     44  CE3      -67.8090    9.6210  -16.0860 C.ar   53  TRP53       0.0012
     45  CZ2      -69.1460    7.1960  -15.4610 C.ar   53  TRP53       0.0191
     46  CZ3      -68.6580    9.5160  -14.9810 C.ar   53  TRP53       0.0001
     47  CH2      -69.3040    8.3060  -14.6840 C.ar   53  TRP53       0.0015
     48  N        -64.1970   15.5240  -29.9320 N.3   107  LYS107     -0.1245
     49  CA       -64.1170   16.0480  -28.5680 C.3   107  LYS107      0.1561
     50  C        -63.6530   17.5030  -28.6400 C.2   107  LYS107      0.2260
     51  O        -62.8280   17.8570  -29.4820 O.2   107  LYS107     -0.2867
     52  CB       -63.1370   15.1970  -27.7190 C.3   107  LYS107      0.0271
     53  CG       -62.1730   15.9990  -26.8950 C.3   107  LYS107      0.0035
     54  CD       -61.1570   15.1650  -26.1210 C.3   107  LYS107      0.0206
     55  CE       -60.4850   16.0960  -25.0770 C.3   107  LYS107      0.1093
     56  NZ       -60.1150   15.4500  -23.7990 N.3   107  LYS107     -0.1314
     57  N        -63.2460   21.3240  -25.9170 N.3   109  HIS109     -0.1241
     58  CA       -63.5430   22.0620  -24.6680 C.3   109  HIS109      0.1621
     59  C        -63.9500   23.4950  -24.9340 C.2   109  HIS109      0.2264
     60  O        -64.0310   24.3110  -24.0200 O.2   109  HIS109     -0.2867
     61  CB       -62.3470   22.0400  -23.7020 C.3   109  HIS109      0.0745
     62  CG       -61.9310   20.6660  -23.2930 C.ar  109  HIS109      0.0817
     63  ND1      -62.7910   19.7850  -22.6900 N.ar  109  HIS109     -0.2268
     64  CD2      -60.7340   20.0310  -23.3700 C.ar  109  HIS109      0.1154
     65  CE1      -62.1550   18.6530  -22.4270 C.ar  109  HIS109      0.1986
     66  NE2      -60.9030   18.7760  -22.8360 N.ar  109  HIS109     -0.2212
     67  N        -69.7760   18.9260  -14.9050 N.3   131  ARG131     -0.1245
     68  CA       -69.3850   18.3150  -13.6410 C.3   131  ARG131      0.1563
     69  C        -69.3320   19.4360  -12.6120 C.2   131  ARG131      0.2260
     70  O        -69.0920   20.6080  -12.9670 O.2   131  ARG131     -0.2867
     71  CB       -67.9900   17.6900  -13.7890 C.3   131  ARG131      0.0307
     72  CG       -67.5050   16.9320  -12.5540 C.3   131  ARG131      0.0489
     73  CD       -66.1120   16.3940  -12.7900 C.3   131  ARG131      0.2205
     74  NE       -65.6800   15.5110  -11.7290 N.pl3 131  ARG131     -0.0865
     75  CZ       -64.4610   14.9930  -11.6320 C.cat 131  ARG131      0.5346
     76  NH1      -63.5330   15.2960  -12.5400 N.pl3 131  ARG131      0.1354
     77  NH2      -64.1750   14.1910  -10.6170 N.pl3 131  ARG131      0.1354
     78  N        -59.6670   18.4300   -9.9760 N.3   139  SER139     -0.1217
     79  CA       -59.2090   17.6210  -11.1090 C.3   139  SER139      0.1889
     80  C        -58.2960   18.4240  -12.0640 C.2   139  SER139      0.2288
     81  O        -57.2660   17.8920  -12.5470 O.2   139  SER139     -0.2866
     82  CB       -60.4230   16.9980  -11.8370 C.3   139  SER139      0.2089
     83  OG       -60.0470   16.2300  -12.9670 O.3   139  SER139     -0.2183
     84  N        -71.9680   14.7920  -14.8590 N.3   194  TYR194     -0.1241
     85  CA       -70.9950   13.7690  -14.4430 C.3   194  TYR194      0.1605
     86  C        -71.5480   12.9940  -13.2570 C.2   194  TYR194      0.2264
     87  O        -71.4700   11.7700  -13.2240 O.2   194  TYR194     -0.2867
     88  CB       -69.6650   14.4400  -14.0640 C.3   194  TYR194      0.0534
     89  CG       -68.5660   13.5110  -13.5760 C.ar  194  TYR194     -0.0201
     90  CD1      -67.5310   13.1080  -14.4300 C.ar  194  TYR194     -0.0009
     91  CD2      -68.5380   13.0730  -12.2440 C.ar  194  TYR194     -0.0009
     92  CE1      -66.4960   12.2650  -13.9670 C.ar  194  TYR194      0.0417
     93  CE2      -67.5180   12.2410  -11.7820 C.ar  194  TYR194      0.0417
     94  CZ       -66.5100   11.8350  -12.6500 C.ar  194  TYR194      0.1957
     95  OH       -65.5020   11.0270  -12.1580 O.3   194  TYR194     -0.2866
     96  N        -72.1540    8.9860  -12.7210 N.3   198  LYS198     -0.1245
     97  CA       -71.4980    8.2790  -11.6160 C.3   198  LYS198      0.1561
     98  C        -72.5110    7.4780  -10.7810 C.2   198  LYS198      0.2260
     99  O        -72.2580    6.3260  -10.4310 O.2   198  LYS198     -0.2867
    100  CB       -70.7000    9.2600  -10.7330 C.3   198  LYS198      0.0271
    101  CG       -69.6090    8.5970   -9.8840 C.3   198  LYS198      0.0035
    102  CD       -68.5450    7.8850  -10.7200 C.3   198  LYS198      0.0206
    103  CE       -67.9450    6.7220   -9.9260 C.3   198  LYS198      0.1093
    104  NZ       -66.6700    6.1820  -10.4540 N.3   198  LYS198     -0.1314
    105  N        -66.9020    0.8080  -19.4320 N.3   228  THR228     -0.1218
    106  CA       -66.7000    2.2500  -19.1800 C.3   228  THR228      0.1862
    107  C        -66.6410    2.6780  -17.7050 C.2   228  THR228      0.2287
    108  O        -66.6490    3.8690  -17.3870 O.2   228  THR228     -0.2866
    109  CB       -67.6850    3.1320  -19.9750 C.3   228  THR228      0.1770
    110  OG1      -69.0320    2.8130  -19.6220 O.3   228  THR228     -0.2211
    111  CG2      -67.4930    2.9120  -21.4730 C.3   228  THR228      0.0375
    112  N        -64.7560    3.3350  -14.1330 N.3   230  PHE230     -0.1241
    113  CA       -63.4400    3.9090  -13.8510 C.3   230  PHE230      0.1605
    114  C        -62.4330    2.8090  -13.5610 C.2   230  PHE230      0.2264
    115  O        -61.2860    2.8680  -14.0260 O.2   230  PHE230     -0.2867
    116  CB       -63.4980    4.9180  -12.6880 C.3   230  PHE230      0.0534
    117  CG       -62.1420    5.4690  -12.2760 C.ar  230  PHE230     -0.0203
    118  CD1      -61.6100    6.6010  -12.8950 C.ar  230  PHE230     -0.0042
    119  CD2      -61.4020    4.8620  -11.2630 C.ar  230  PHE230     -0.0042
    120  CE1      -60.3590    7.1090  -12.5150 C.ar  230  PHE230     -0.0003
    121  CE2      -60.1420    5.3770  -10.8720 C.ar  230  PHE230     -0.0003
    122  CZ       -59.6220    6.4880  -11.5090 C.ar  230  PHE230     -0.0000
    123  N        -61.5170    1.3830  -17.0370 N.3   233  MET233     -0.1245
    124  CA       -60.9030    2.3850  -17.9100 C.3   233  MET233      0.1570
    125  C        -59.5250    2.8330  -17.4060 C.2   233  MET233      0.2261
    126  O        -58.6340    3.0850  -18.2020 O.2   233  MET233     -0.2867
    127  CB       -61.8290    3.5830  -18.1290 C.3   233  MET233      0.0387
    128  CG       -62.9620    3.3320  -19.1480 C.3   233  MET233      0.0595
    129  SD       -63.9710    4.7920  -19.5530 S.3   233  MET233     -0.1393
    130  CE       -62.7930    5.7790  -20.4420 C.3   233  MET233      0.0692
    131  N        -53.5030   10.5660  -15.1970 N.3   256  PHE256     -0.1227
    132  CA       -54.6620   11.1050  -15.8800 C.3   256  PHE256      0.1736
    133  C        -55.9510   10.5480  -15.2600 C.2   256  PHE256      0.2595
    134  O        -56.8580   11.3220  -14.9180 O.2   256  PHE256     -0.2718
    135  CB       -54.6480   10.8340  -17.3900 C.3   256  PHE256      0.0547
    136  CG       -55.8050   11.4730  -18.1200 C.ar  256  PHE256     -0.0202
    137  CD1      -55.6610   12.7340  -18.7050 C.ar  256  PHE256     -0.0042
    138  CD2      -57.0380   10.8360  -18.1850 C.ar  256  PHE256     -0.0042
    139  CE1      -56.7310   13.3560  -19.3790 C.ar  256  PHE256     -0.0003
    140  CE2      -58.1230   11.4330  -18.8450 C.ar  256  PHE256     -0.0003
    141  CZ       -57.9700   12.6940  -19.4480 C.ar  256  PHE256     -0.0000
    142  N        -56.0200    9.2140  -15.1410 N.am  257  MET257     -0.1965
    143  CA       -57.1260    8.5520  -14.5000 C.3   257  MET257      0.1736
    144  C        -56.8480    8.6230  -12.9860 C.2   257  MET257      0.2616
    145  O        -56.2660    7.7090  -12.4250 O.2   257  MET257     -0.2715
    146  CB       -57.2260    7.1030  -14.9900 C.3   257  MET257      0.0427
    147  CG       -57.5550    7.0060  -16.4680 C.3   257  MET257      0.0599
    148  SD       -59.2800    7.4800  -16.6770 S.3   257  MET257     -0.1393
    149  CE       -59.4540    7.5030  -18.4600 C.3   257  MET257      0.0692
    150  N        -57.2570    9.7250  -12.3590 N.am  258  ARG258     -0.1963
    151  CA       -56.8160   10.0800  -11.0040 C.3   258  ARG258      0.1729
    152  C        -57.6370    9.3890   -9.9110 C.2   258  ARG258      0.2616
    153  O        -57.1430    8.4850   -9.2390 O.2   258  ARG258     -0.2715
    154  CB       -56.8230   11.6160  -10.8370 C.3   258  ARG258      0.0348
    155  CG       -56.0540   12.1510   -9.6220 C.3   258  ARG258      0.0492
    156  CD       -56.1890   13.6820   -9.5650 C.3   258  ARG258      0.2205
    157  NE       -57.5970   14.0570   -9.4630 N.pl3 258  ARG258     -0.0865
    158  CZ       -58.2650   14.2320   -8.3290 C.cat 258  ARG258      0.5346
    159  NH1      -57.6390   14.0940   -7.1500 N.pl3 258  ARG258      0.1354
    160  NH2      -59.5700   14.5520   -8.3800 N.pl3 258  ARG258      0.1354
    161  N        -58.8990    9.7860   -9.7600 N.am  259  LYS259     -0.1963
    162  CA       -59.7820    9.2410   -8.7270 C.3   259  LYS259      0.1728
    163  C        -61.1430    8.8450   -9.2830 C.2   259  LYS259      0.2617
    164  O        -61.7150    7.8400   -8.8770 O.2   259  LYS259     -0.2715
    165  CB       -59.9920   10.2620   -7.6120 C.3   259  LYS259      0.0311
    166  CG       -58.7710   10.5800   -6.7830 C.3   259  LYS259      0.0038
    167  CD       -58.4500    9.4400   -5.8420 C.3   259  LYS259      0.0206
    168  CE       -57.2320    9.7770   -4.9840 C.3   259  LYS259      0.1093
    169  NZ       -56.1340   10.3270   -5.8190 N.3   259  LYS259     -0.1314
    170  N        -61.6790    9.6730  -10.1770 N.am  260  GLY260     -0.1940
    171  CA       -62.9530    9.3800  -10.8280 C.3   260  GLY260      0.2014
    172  C        -64.1190    9.3280   -9.8660 C.2   260  GLY260      0.2639
    173  O        -65.0360    8.5310  -10.0550 O.2   260  GLY260     -0.2714
    174  N        -64.0800   10.1900   -8.8470 N.am  261  THR261     -0.1950
    175  CA       -65.0790   10.2170   -7.7730 C.3   261  THR261      0.1897
    176  C        -65.7860   11.5630   -7.7590 C.2   261  THR261      0.2313
    177  O        -65.1610   12.6080   -8.0370 O.2   261  THR261     -0.2863
    178  CB       -64.4100    9.9900   -6.3860 C.3   261  THR261      0.1794
    179  OG1      -63.6890    8.7580   -6.4070 O.3   261  THR261     -0.2208
    180  CG2      -65.4320    9.8490   -5.2910 C.3   261  THR261      0.0378
    181  N        -64.4700   14.1180   -4.2550 N.3   264  ASP264     -0.1239
    182  CA       -63.0240   14.0940   -3.9470 C.3   264  ASP264      0.1674
    183  C        -62.5040   15.4770   -3.5160 C.2   264  ASP264      0.2266
    184  O        -61.4840   15.5820   -2.8000 O.2   264  ASP264     -0.2867
    185  CB       -62.1880   13.5770   -5.1370 C.3   264  ASP264      0.1410
    186  CG       -60.6990   13.4580   -4.7970 C.2   264  ASP264      0.3668
    187  OD1      -60.3520   12.8280   -3.7820 O.co2 264  ASP264     -0.2456
    188  OD2      -59.8710   14.0070   -5.5340 O.co2 264  ASP264     -0.2456
@<TRIPOS>BOND
     1    48    49    1
     2    51    50    2
     3    50    49    1
     4    49    52    1
     5    52    53    1
     6    53    54    1
     7    54    55    1
     8    57    58    1
     9    55    56    1
    10    59    58    1
    11    59    60    2
    12    58    61    1
    13    26    24    1
    14    61    62    1
    15    64    62   ar
    16    64    66   ar
    17    62    63   ar
    18    23    22    2
    19    66    65   ar
    20    63    65   ar
    21    30    29    2
    22    24    21    1
    23    24    25    1
    24    22    21    1
    25    22    27   am
    26    28    29    1
    27    28    27    1
    28    28    31    1
    29    33    31    1
    30    21    20    1
    31    29    34   am
    32    37    36    2
    33   111   109    1
    34    32    31    1
    35    36    35    1
    36    34    35    1
    37   130   129    1
    38    20    18   am
    39    35    38    1
    40   109   110    1
    41   109   106    1
    42    19    18    2
    43   129   128    1
    44    18    17    1
    45   141   139   ar
    46   141   140   ar
    47   105   106    1
    48   139   137   ar
    49   106   107    1
    50   128   127    1
    51   140   138   ar
    52    38    39    1
    53   137   136   ar
    54   149   148    1
    55    40    39   ar
    56    40    42   ar
    57   126   125    2
    58   138   136   ar
    59   127   124    1
    60   136   135    1
    61    39    41   ar
    62    17    16    1
    63   124   125    1
    64   124   123    1
    65   107   108    2
    66     1     2    1
    67    16    12   am
    68    42    43   ar
    69   135   132    1
    70     9     8    1
    71    14    15    1
    72    14    11    1
    73    12    13    2
    74    12    11    1
    75    10    11    1
    76    10     3   am
    77    41    43   ar
    78    41    44   ar
    79     7     8    1
    80     7     6    1
    81   148   147    1
    82    43    45   ar
    83     2     3    1
    84     2     5    1
    85   147   146    1
    86    44    46   ar
    87     3     4    2
    88   132   133    1
    89   132   131    1
    90     6     5    1
    91    45    47   ar
    92   133   142   am
    93   133   134    2
    94   142   143    1
    95   146   143    1
    96    46    47   ar
    97    67    68    1
    98    84    85    1
    99   143   144    1
   100    85    88    1
   101    85    86    1
   102    90    92   ar
   103    90    89   ar
   104   112   113    1
   105    88    89    1
   106   115   114    2
   107    92    94   ar
   108   113   114    1
   109   113   116    1
   110    71    68    1
   111    71    72    1
   112    68    69    1
   113    89    91   ar
   114    86    87    2
   115   144   145    2
   116   144   150   am
   117    70    69    2
   118    83    82    1
   119   118   120   ar
   120   118   117   ar
   121    73    72    1
   122    73    74    1
   123    96    97    1
   124   116   117    1
   125    94    95    1
   126    94    93   ar
   127    81    80    2
   128    76    75    1
   129   120   122   ar
   130   150   151    1
   131   117   119   ar
   132    91    93   ar
   133    80    79    1
   134    82    79    1
   135    74    75    2
   136    75    77    1
   137    97    98    1
   138    97   100    1
   139   122   121   ar
   140   119   121   ar
   141    79    78    1
   142   151   154    1
   143   151   152    1
   144   154   155    1
   145   171   170    1
   146   171   172    1
   147    98    99    2
   148   100   101    1
   149   102   103    1
   150   102   101    1
   151   104   103    1
   152   170   163   am
   153   173   172    2
   154   152   161   am
   155   152   153    2
   156   172   174   am
   157   161   162    1
   158   155   156    1
   159   156   157    1
   160   157   158    2
   161   163   164    2
   162   163   162    1
   163   174   175    1
   164   162   165    1
   165   160   158    1
   166   158   159    1
   167   177   176    2
   168   175   176    1
   169   175   178    1
   170   165   166    1
   171   166   167    1
   172   179   178    1
   173   178   180    1
   174   167   168    1
   175   169   168    1
   176   188   186   ar
   177   185   186    1
   178   185   182    1
   179   186   187   ar
   180   181   182    1
   181   182   183    1
   182   183   184    2
