@<TRIPOS>MOLECULE
tmp/3cklB00.pdb
 206 195 0 0 0
SMALL
GASTEIGER

@<TRIPOS>ATOM
      1  N        -54.5120   27.2140  -23.7160 N.3    21  THR21      -0.1218
      2  CA       -53.2210   26.5370  -23.6700 C.3    21  THR21       0.1862
      3  C        -52.3580   27.0470  -24.8180 C.2    21  THR21       0.2287
      4  O        -52.8320   27.1540  -25.9510 O.2    21  THR21      -0.2866
      5  CB       -53.4290   25.0050  -23.8000 C.3    21  THR21       0.1770
      6  OG1      -54.3080   24.5870  -22.7570 O.3    21  THR21      -0.2211
      7  CG2      -52.0860   24.2500  -23.6910 C.3    21  THR21       0.0375
      8  N        -52.1380   25.3040  -28.1410 N.3    24  PHE24      -0.1241
      9  CA       -53.3560   25.3350  -28.9850 C.3    24  PHE24       0.1605
     10  C        -53.7920   26.7250  -29.4850 C.2    24  PHE24       0.2264
     11  O        -54.8290   26.8290  -30.1310 O.2    24  PHE24      -0.2867
     12  CB       -54.5810   24.7300  -28.2680 C.3    24  PHE24       0.0534
     13  CG       -54.3720   23.3530  -27.6830 C.ar   24  PHE24      -0.0203
     14  CD1      -53.3080   22.5360  -28.0660 C.ar   24  PHE24      -0.0042
     15  CD2      -55.2810   22.8700  -26.7420 C.ar   24  PHE24      -0.0042
     16  CE1      -53.1550   21.2590  -27.5080 C.ar   24  PHE24      -0.0003
     17  CE2      -55.1410   21.6090  -26.1870 C.ar   24  PHE24      -0.0003
     18  CZ       -54.0670   20.7980  -26.5650 C.ar   24  PHE24      -0.0000
     19  N        -62.9160   21.4350  -19.3630 N.3    47  PRO47      -0.2102
     20  CA       -61.9120   20.4590  -18.9220 C.3    47  PRO47       0.1504
     21  C        -62.2540   19.7090  -17.6720 C.2    47  PRO47       0.2575
     22  O        -62.7430   20.3090  -16.7250 O.2    47  PRO47      -0.2718
     23  CB       -60.6730   21.3280  -18.7030 C.3    47  PRO47       0.0282
     24  CG       -60.8180   22.3250  -19.7940 C.3    47  PRO47       0.0208
     25  CD       -62.2600   22.6720  -19.8510 C.3    47  PRO47       0.0893
     26  N        -62.0000   18.3910  -17.6960 N.am   48  LYS48      -0.1980
     27  CA       -61.9760   17.5440  -16.5160 C.3    48  LYS48       0.1596
     28  C        -63.3620   17.1550  -16.0300 C.2    48  LYS48       0.2287
     29  O        -63.5460   16.7850  -14.8590 O.2    48  LYS48      -0.2864
     30  CB       -61.1710   18.2110  -15.3700 C.3    48  LYS48       0.0298
     31  CG       -59.8110   18.8430  -15.7700 C.3    48  LYS48       0.0038
     32  CD       -58.9920   17.9820  -16.7960 C.3    48  LYS48       0.0206
     33  CE       -58.5320   16.6490  -16.1870 C.3    48  LYS48       0.1093
     34  NZ       -57.9960   15.6880  -17.2670 N.3    48  LYS48      -0.1314
     35  N        -57.1640    9.0220  -28.5460 N.3    76  THR76      -0.1218
     36  CA       -56.7780   10.2110  -29.2940 C.3    76  THR76       0.1862
     37  C        -57.0220   10.0350  -30.7980 C.2    76  THR76       0.2287
     38  O        -57.2740   11.0130  -31.4920 O.2    76  THR76      -0.2866
     39  CB       -55.3150   10.6290  -29.0030 C.3    76  THR76       0.1770
     40  OG1      -54.4500    9.4920  -29.1440 O.3    76  THR76      -0.2211
     41  CG2      -55.1960   11.1910  -27.5870 C.3    76  THR76       0.0375
     42  N        -59.3930   15.4510  -30.2910 N.3    81  MET81      -0.1245
     43  CA       -59.7180   16.7690  -29.7520 C.3    81  MET81       0.1570
     44  C        -59.5360   17.7990  -30.8700 C.2    81  MET81       0.2261
     45  O        -58.4270   17.9790  -31.3760 O.2    81  MET81      -0.2867
     46  CB       -58.8010   17.1060  -28.5570 C.3    81  MET81       0.0387
     47  CG       -59.1150   18.4370  -27.8660 C.3    81  MET81       0.0595
     48  SD       -58.2000   18.6960  -26.3090 S.3    81  MET81      -0.1393
     49  CE       -56.7120   17.8580  -26.6760 C.3    81  MET81       0.0692
     50  N        -56.7960   20.4250  -30.6450 N.3    84  MET84      -0.1245
     51  CA       -55.4540   19.9610  -30.2810 C.3    84  MET84       0.1570
     52  C        -54.4590   20.0960  -31.4280 C.2    84  MET84       0.2261
     53  O        -54.7870   19.7680  -32.5720 O.2    84  MET84      -0.2867
     54  CB       -55.4280   18.5320  -29.7550 C.3    84  MET84       0.0387
     55  CG       -54.0020   18.0470  -29.3710 C.3    84  MET84       0.0595
     56  SD       -53.0720   17.3360  -30.7590 S.3    84  MET84      -0.1393
     57  CE       -53.9740   15.8660  -31.0130 C.3    84  MET84       0.0692
     58  N        -49.8730   19.6570  -31.7240 N.3    86  LEU86      -0.1245
     59  CA       -48.6280   19.3430  -31.0550 C.3    86  LEU86       0.1561
     60  C        -47.5390   19.2910  -32.1430 C.2    86  LEU86       0.2260
     61  O        -47.0780   18.2100  -32.5240 O.2    86  LEU86      -0.2867
     62  CB       -48.7890   18.0190  -30.2940 C.3    86  LEU86       0.0270
     63  CG       -47.9340   17.6640  -29.0830 C.3    86  LEU86       0.0019
     64  CD1      -48.2800   18.5190  -27.8470 C.3    86  LEU86       0.0001
     65  CD2      -48.0650   16.1740  -28.7700 C.3    86  LEU86       0.0001
     66  N        -47.2010   15.0180  -32.6570 N.3    90  ARG90      -0.1245
     67  CA       -48.3640   14.1830  -32.9130 C.3    90  ARG90       0.1563
     68  C        -49.2270   14.8560  -33.9690 C.2    90  ARG90       0.2260
     69  O        -49.1680   16.0840  -34.1570 O.2    90  ARG90      -0.2867
     70  CB       -49.1610   13.9340  -31.6250 C.3    90  ARG90       0.0307
     71  CG       -48.4620   13.0360  -30.5760 C.3    90  ARG90       0.0489
     72  CD       -48.4440   11.5930  -31.0720 C.3    90  ARG90       0.2205
     73  NE       -47.8940   10.6290  -30.1150 N.pl3  90  ARG90      -0.0865
     74  CZ       -46.5940   10.4130  -29.9050 C.cat  90  ARG90       0.5346
     75  NH1      -45.6700   11.1080  -30.5640 N.pl3  90  ARG90       0.1354
     76  NH2      -46.2120    9.4900  -29.0270 N.pl3  90  ARG90       0.1354
     77  N        -64.1970   15.5240  -29.9320 N.3   107  LYS107     -0.1245
     78  CA       -64.1170   16.0480  -28.5680 C.3   107  LYS107      0.1561
     79  C        -63.6530   17.5030  -28.6400 C.2   107  LYS107      0.2260
     80  O        -62.8280   17.8570  -29.4820 O.2   107  LYS107     -0.2867
     81  CB       -63.1370   15.1970  -27.7190 C.3   107  LYS107      0.0271
     82  CG       -62.1730   15.9990  -26.8950 C.3   107  LYS107      0.0035
     83  CD       -61.1570   15.1650  -26.1210 C.3   107  LYS107      0.0206
     84  CE       -60.4850   16.0960  -25.0770 C.3   107  LYS107      0.1093
     85  NZ       -60.1150   15.4500  -23.7990 N.3   107  LYS107     -0.1314
     86  N        -63.2460   21.3240  -25.9170 N.3   109  HIS109     -0.1241
     87  CA       -63.5430   22.0620  -24.6680 C.3   109  HIS109      0.1621
     88  C        -63.9500   23.4950  -24.9340 C.2   109  HIS109      0.2264
     89  O        -64.0310   24.3110  -24.0200 O.2   109  HIS109     -0.2867
     90  CB       -62.3470   22.0400  -23.7020 C.3   109  HIS109      0.0745
     91  CG       -61.9310   20.6660  -23.2930 C.ar  109  HIS109      0.0817
     92  ND1      -62.7910   19.7850  -22.6900 N.ar  109  HIS109     -0.2268
     93  CD2      -60.7340   20.0310  -23.3700 C.ar  109  HIS109      0.1154
     94  CE1      -62.1550   18.6530  -22.4270 C.ar  109  HIS109      0.1986
     95  NE2      -60.9030   18.7760  -22.8360 N.ar  109  HIS109     -0.2212
     96  N        -58.6550   19.6800  -12.3240 N.3   140  TYR140     -0.1241
     97  CA       -57.9080   20.5790  -13.2320 C.3   140  TYR140      0.1605
     98  C        -56.5460   20.9870  -12.6370 C.2   140  TYR140      0.2264
     99  O        -55.5290   21.0010  -13.3310 O.2   140  TYR140     -0.2867
    100  CB       -58.7650   21.8000  -13.6120 C.3   140  TYR140      0.0534
    101  CG       -58.5390   22.4710  -14.9800 C.ar  140  TYR140     -0.0201
    102  CD1      -57.6210   21.9800  -15.9230 C.ar  140  TYR140     -0.0009
    103  CD2      -59.3160   23.5730  -15.3430 C.ar  140  TYR140     -0.0009
    104  CE1      -57.4620   22.5950  -17.1610 C.ar  140  TYR140      0.0417
    105  CE2      -59.1430   24.2020  -16.5440 C.ar  140  TYR140      0.0417
    106  CZ       -58.2300   23.7050  -17.4550 C.ar  140  TYR140      0.1957
    107  OH       -58.1100   24.3460  -18.6530 O.3   140  TYR140     -0.2866
    108  N        -54.4410   17.9260  -13.0130 N.3   143  PHE143     -0.1241
    109  CA       -54.1180   17.9010  -14.4420 C.3   143  PHE143      0.1605
    110  C        -52.9700   18.8630  -14.7930 C.2   143  PHE143      0.2264
    111  O        -52.0840   18.5000  -15.5430 O.2   143  PHE143     -0.2867
    112  CB       -55.3510   18.2300  -15.2770 C.3   143  PHE143      0.0534
    113  CG       -55.1920   17.9320  -16.7640 C.ar  143  PHE143     -0.0203
    114  CD1      -54.8310   16.6420  -17.2000 C.ar  143  PHE143     -0.0042
    115  CD2      -55.4530   18.9060  -17.7060 C.ar  143  PHE143     -0.0042
    116  CE1      -54.6830   16.3510  -18.5530 C.ar  143  PHE143     -0.0003
    117  CE2      -55.3190   18.6210  -19.0990 C.ar  143  PHE143     -0.0003
    118  CZ       -54.9330   17.3390  -19.5060 C.ar  143  PHE143     -0.0000
    119  N        -49.6420   17.7950  -16.8910 N.3   147  ASN147     -0.1240
    120  CA       -49.6980   18.2190  -18.2890 C.3   147  ASN147      0.1653
    121  C        -48.7780   19.4020  -18.5490 C.2   147  ASN147      0.2266
    122  O        -49.1000   20.5180  -18.1690 O.2   147  ASN147     -0.2867
    123  CB       -51.1330   18.6160  -18.6590 C.3   147  ASN147      0.1155
    124  CG       -51.2820   19.0160  -20.1380 C.2   147  ASN147      0.2627
    125  OD1      -50.3310   19.4010  -20.7910 O.2   147  ASN147     -0.2716
    126  ND2      -52.4990   18.9410  -20.6460 N.am  147  ASN147     -0.0877
    127  N        -47.9920   21.1350  -21.1190 N.3   149  LEU149     -0.1231
    128  CA       -48.4620   22.1950  -22.0210 C.3   149  LEU149      0.1693
    129  C        -49.1350   23.3420  -21.2470 C.2   149  LEU149      0.2591
    130  O        -49.2980   24.4550  -21.7670 O.2   149  LEU149     -0.2718
    131  CB       -49.4370   21.6320  -23.0610 C.3   149  LEU149      0.0284
    132  CG       -49.0640   20.3720  -23.8570 C.3   149  LEU149      0.0019
    133  CD1      -50.1530   20.0310  -24.8770 C.3   149  LEU149      0.0001
    134  CD2      -47.7460   20.5980  -24.5640 C.3   149  LEU149      0.0001
    135  N        -49.5170   23.0560  -20.0070 N.am  150  GLN150     -0.1979
    136  CA       -50.1730   24.0230  -19.1450 C.3   150  GLN150      0.1601
    137  C        -49.1360   24.8570  -18.4120 C.2   150  GLN150      0.2287
    138  O        -48.0090   24.4100  -18.2160 O.2   150  GLN150     -0.2864
    139  CB       -51.0590   23.3060  -18.1050 C.3   150  GLN150      0.0394
    140  CG       -52.2600   22.6230  -18.7170 C.3   150  GLN150      0.0908
    141  CD       -53.2530   23.6340  -19.2360 C.2   150  GLN150      0.2608
    142  OE1      -53.1180   24.1590  -20.3610 O.2   150  GLN150     -0.2717
    143  NE2      -54.2510   23.9420  -18.4130 N.am  150  GLN150     -0.0878
    144  N        -56.9570   27.8870  -18.7230 N.3   169  ALA169     -0.1231
    145  CA       -57.2670   27.4980  -20.0900 C.3   169  ALA169      0.1694
    146  C        -58.7500   27.2250  -20.2590 C.2   169  ALA169      0.2592
    147  O        -59.3550   26.4900  -19.4700 O.2   169  ALA169     -0.2718
    148  CB       -56.4340   26.3150  -20.5370 C.3   169  ALA169      0.0304
    149  N        -59.3170   27.8710  -21.2720 N.am  170  TYR170     -0.1976
    150  CA       -60.7440   27.8200  -21.6690 C.3   170  TYR170      0.1639
    151  C        -61.6390   28.7370  -20.8540 C.2   170  TYR170      0.2290
    152  O        -62.8720   28.7450  -21.0220 O.2   170  TYR170     -0.2864
    153  CB       -61.3140   26.3980  -21.6960 C.3   170  TYR170      0.0560
    154  CG       -60.6540   25.4640  -22.7060 C.ar  170  TYR170     -0.0198
    155  CD1      -61.0570   25.4420  -24.0290 C.ar  170  TYR170     -0.0009
    156  CD2      -59.6640   24.5760  -22.3090 C.ar  170  TYR170     -0.0009
    157  CE1      -60.4470   24.5520  -24.9570 C.ar  170  TYR170      0.0417
    158  CE2      -59.0640   23.7020  -23.2020 C.ar  170  TYR170      0.0417
    159  CZ       -59.4540   23.6960  -24.5320 C.ar  170  TYR170      0.1957
    160  OH       -58.8650   22.8000  -25.4170 O.3   170  TYR170     -0.2866
    161  N        -54.3650    7.5120  -21.3200 N.3   241  TYR241     -0.1241
    162  CA       -53.4420    8.5940  -21.6690 C.3   241  TYR241      0.1605
    163  C        -51.9320    8.3080  -21.3860 C.2   241  TYR241      0.2264
    164  O        -51.0750    9.1880  -21.5680 O.2   241  TYR241     -0.2867
    165  CB       -53.9170    9.9730  -21.1360 C.3   241  TYR241      0.0534
    166  CG       -54.9440   10.6090  -22.0570 C.ar  241  TYR241     -0.0201
    167  CD1      -56.3150   10.4200  -21.8520 C.ar  241  TYR241     -0.0009
    168  CD2      -54.5510   11.3710  -23.1430 C.ar  241  TYR241     -0.0009
    169  CE1      -57.2770   10.9730  -22.7250 C.ar  241  TYR241      0.0417
    170  CE2      -55.5040   11.9250  -24.0260 C.ar  241  TYR241      0.0417
    171  CZ       -56.8610   11.7230  -23.8040 C.ar  241  TYR241      0.1957
    172  OH       -57.7990   12.2850  -24.6650 O.3   241  TYR241     -0.2866
    173  N        -49.2390    8.8440  -24.4150 N.3   244  LEU244     -0.1245
    174  CA       -48.7500   10.1500  -24.8140 C.3   244  LEU244      0.1561
    175  C        -47.2860   10.3160  -24.3940 C.2   244  LEU244      0.2260
    176  O        -46.8480    9.6360  -23.4620 O.2   244  LEU244     -0.2867
    177  CB       -49.6000   11.2720  -24.2020 C.3   244  LEU244      0.0270
    178  CG       -50.9710   11.4820  -24.8550 C.3   244  LEU244      0.0019
    179  CD1      -51.6410   12.6260  -24.1610 C.3   244  LEU244      0.0001
    180  CD2      -50.8530   11.7220  -26.3720 C.3   244  LEU244      0.0001
    181  N        -45.4060   15.7170  -22.7310 N.3   248  VAL248     -0.1231
    182  CA       -46.7840   16.2410  -22.7860 C.3   248  VAL248      0.1692
    183  C        -47.5220   15.8880  -21.4990 C.2   248  VAL248      0.2591
    184  O        -47.9820   16.7790  -20.7860 O.2   248  VAL248     -0.2718
    185  CB       -47.5450   15.6650  -23.9950 C.3   248  VAL248      0.0266
    186  CG1      -49.0060   16.0460  -23.9650 C.3   248  VAL248      0.0020
    187  CG2      -46.8790   16.1590  -25.3320 C.3   248  VAL248      0.0020
    188  N        -47.6180   14.5990  -21.1830 N.am  249  MET249     -0.1979
    189  CA       -48.2030   14.1780  -19.8990 C.3   249  MET249      0.1605
    190  C        -47.2660   13.3190  -19.0530 C.2   249  MET249      0.2287
    191  O        -46.8680   12.2290  -19.4540 O.2   249  MET249     -0.2864
    192  CB       -49.5320   13.4580  -20.1320 C.3   249  MET249      0.0413
    193  CG       -50.6430   14.4130  -20.6650 C.3   249  MET249      0.0598
    194  SD       -52.2180   13.5400  -20.6080 S.3   249  MET249     -0.1393
    195  CE       -53.2460   14.6780  -21.5310 C.3   249  MET249      0.0692
    196  N        -53.5030   10.5660  -15.1970 N.3   256  PHE256     -0.1241
    197  CA       -54.6620   11.1050  -15.8800 C.3   256  PHE256      0.1605
    198  C        -55.9510   10.5480  -15.2600 C.2   256  PHE256      0.2264
    199  O        -56.8580   11.3220  -14.9180 O.2   256  PHE256     -0.2867
    200  CB       -54.6480   10.8340  -17.3900 C.3   256  PHE256      0.0534
    201  CG       -55.8050   11.4730  -18.1200 C.ar  256  PHE256     -0.0203
    202  CD1      -55.6610   12.7340  -18.7050 C.ar  256  PHE256     -0.0042
    203  CD2      -57.0380   10.8360  -18.1850 C.ar  256  PHE256     -0.0042
    204  CE1      -56.7310   13.3560  -19.3790 C.ar  256  PHE256     -0.0003
    205  CE2      -58.1230   11.4330  -18.8450 C.ar  256  PHE256     -0.0003
    206  CZ       -57.9700   12.6940  -19.4480 C.ar  256  PHE256     -0.0000
@<TRIPOS>BOND
     1    69    68    2
     2    68    67    1
     3    67    66    1
     4    67    70    1
     5    53    52    2
     6    61    60    2
     7    60    59    1
     8    58    59    1
     9    70    71    1
    10    38    37    2
    11    52    51    1
    12    45    44    2
    13    72    71    1
    14    72    73    1
    15    59    62    1
    16    57    56    1
    17    44    43    1
    18    37    36    1
    19    56    55    1
    20    50    51    1
    21    75    74    1
    22    62    63    1
    23    42    43    1
    24    51    54    1
    25    11    10    2
    26    73    74    2
    27    77    78    1
    28    74    76    1
    29    54    55    1
    30    43    46    1
    31    10     9    1
    32    80    79    2
    33    36    39    1
    34    36    35    1
    35    40    39    1
    36    63    65    1
    37    63    64    1
    38    39    41    1
    39     9    12    1
    40     9     8    1
    41    79    78    1
    42    78    81    1
    43    46    47    1
    44    12    13    1
    45    14    13   ar
    46    14    16   ar
    47    47    48    1
    48    81    82    1
    49    13    15   ar
    50    16    18   ar
    51    82    83    1
    52    15    17   ar
    53    49    48    1
    54    18    17   ar
    55   180   178    1
    56    83    84    1
    57     4     3    2
    58    86    87    1
    59   160   159    1
    60   187   185    1
    61    84    85    1
    62   157   159   ar
    63   157   155   ar
    64    88    87    1
    65    88    89    2
    66   133   132    1
    67   178   177    1
    68   178   179    1
    69     3     2    1
    70   174   173    1
    71   174   175    1
    72   174   177    1
    73    87    90    1
    74   172   171    1
    75   134   132    1
    76   159   158   ar
    77   175   176    2
    78   155   154   ar
    79   170   171   ar
    80   170   168   ar
    81   185   186    1
    82   185   182    1
    83   132   131    1
    84   171   169   ar
    85     5     7    1
    86     5     2    1
    87     5     6    1
    88     1     2    1
    89    90    91    1
    90    93    91   ar
    91    93    95   ar
    92    91    92   ar
    93   158   156   ar
    94   168   166   ar
    95   131   128    1
    96    95    94   ar
    97   182   181    1
    98   182   183    1
    99   169   167   ar
   100   154   156   ar
   101   154   153    1
   102    92    94   ar
   103   166   167   ar
   104   166   165    1
   105   128   129    1
   106   128   127    1
   107   130   129    2
   108   153   150    1
   109   162   163    1
   110   162   161    1
   111   162   165    1
   112   150   149    1
   113   150   151    1
   114   164   163    2
   115   195   194    1
   116   183   188   am
   117   183   184    2
   118   149   146   am
   119   129   135   am
   120   188   189    1
   121   152   151    2
   122   125   124    2
   123   193   194    1
   124   193   192    1
   125   126   124   am
   126   148   145    1
   127   142   141    2
   128   146   145    1
   129   146   147    2
   130   124   123    1
   131   192   189    1
   132   145   144    1
   133   135   136    1
   134   189   190    1
   135    25    24    1
   136    25    19    1
   137    24    23    1
   138   118   117   ar
   139   118   116   ar
   140   191   190    2
   141   206   204   ar
   142   206   205   ar
   143   204   202   ar
   144    19    20    1
   145   141   140    1
   146   141   143   am
   147   136   137    1
   148   136   139    1
   149   117   115   ar
   150    20    23    1
   151    20    21    1
   152   205   203   ar
   153   140   139    1
   154   202   201   ar
   155   123   120    1
   156   107   106    1
   157   116   114   ar
   158   121   120    1
   159   121   122    2
   160   137   138    2
   161   120   119    1
   162   203   201   ar
   163   201   200    1
   164   115   113   ar
   165    26    21   am
   166    26    27    1
   167    21    22    2
   168   106   104   ar
   169   106   105   ar
   170   200   197    1
   171    34    33    1
   172   114   113   ar
   173   104   102   ar
   174    32    33    1
   175    32    31    1
   176   113   112    1
   177   105   103   ar
   178    27    28    1
   179    27    30    1
   180    28    29    2
   181   102   101   ar
   182   197   198    1
   183   197   196    1
   184    31    30    1
   185   111   110    2
   186   103   101   ar
   187   112   109    1
   188   198   199    2
   189   101   100    1
   190   110   109    1
   191   109   108    1
   192   100    97    1
   193    99    98    2
   194    97    98    1
   195    97    96    1
