@<TRIPOS>MOLECULE
tmp/3ckqA00.pdb
 181 167 0 0 0
SMALL
GASTEIGER

@<TRIPOS>ATOM
      1  N          7.7010   26.7430   21.1150 N.3    41  PRO41      -0.2102
      2  CA         7.2310   27.5310   19.9750 C.3    41  PRO41       0.1504
      3  C          5.9810   26.9100   19.3510 C.2    41  PRO41       0.2576
      4  O          5.9370   25.6950   19.1320 O.2    41  PRO41      -0.2718
      5  CB         8.4060   27.4680   18.9930 C.3    41  PRO41       0.0282
      6  CG         9.1770   26.2550   19.3900 C.3    41  PRO41       0.0208
      7  CD         9.0370   26.1700   20.8730 C.3    41  PRO41       0.0893
      8  N          4.9740   27.7390   19.0800 N.am   42  ALA42      -0.1966
      9  CA         3.7040   27.2580   18.5370 C.3    42  ALA42       0.1728
     10  C          3.0650   28.2110   17.5250 C.2    42  ALA42       0.2616
     11  O          2.7790   29.3700   17.8390 O.2    42  ALA42      -0.2715
     12  CB         2.7260   26.9470   19.6670 C.3    42  ALA42       0.0334
     13  N          2.8560   27.7070   16.3100 N.am   43  LEU43      -0.1977
     14  CA         2.0850   28.4070   15.2830 C.3    43  LEU43       0.1596
     15  C          1.0280   27.4580   14.7200 C.2    43  LEU43       0.2287
     16  O          1.2950   26.7020   13.7810 O.2    43  LEU43      -0.2864
     17  CB         2.9980   28.9430   14.1710 C.3    43  LEU43       0.0297
     18  CG         2.3610   29.5410   12.9060 C.3    43  LEU43       0.0022
     19  CD1        1.6670   30.8730   13.1730 C.3    43  LEU43       0.0001
     20  CD2        3.3990   29.6890   11.8050 C.3    43  LEU43       0.0001
     21  N         -1.0840   24.6820   16.3840 N.3    45  GLU45      -0.1245
     22  CA        -0.8770   23.2720   16.7180 C.3    45  GLU45       0.1567
     23  C         -1.9420   22.7490   17.6830 C.2    45  GLU45       0.2260
     24  O         -1.6480   21.9340   18.5620 O.2    45  GLU45      -0.2867
     25  CB         0.5220   23.0520   17.3050 C.3    45  GLU45       0.0388
     26  CG         1.5410   22.4930   16.3200 C.3    45  GLU45       0.1160
     27  CD         2.1550   23.5510   15.4220 C.2    45  GLU45       0.3649
     28  OE1        2.1340   24.7440   15.7940 O.co2  45  GLU45      -0.2457
     29  OE2        2.6710   23.1840   14.3420 O.co2  45  GLU45      -0.2457
     30  N          3.2600   32.1610   18.1730 N.3    72  SER72      -0.1217
     31  CA         3.6910   32.8700   16.9650 C.3    72  SER72       0.1889
     32  C          2.5070   33.4140   16.1620 C.2    72  SER72       0.2288
     33  O          2.5510   33.4650   14.9300 O.2    72  SER72      -0.2866
     34  CB         4.5620   31.9710   16.0830 C.3    72  SER72       0.2089
     35  OG         5.8890   31.9070   16.5670 O.3    72  SER72      -0.2183
     36  N          4.1870   36.6250   20.8210 N.3    92  ARG92      -0.1245
     37  CA         5.3280   37.4250   20.3610 C.3    92  ARG92       0.1563
     38  C          5.2170   38.8880   20.7940 C.2    92  ARG92       0.2260
     39  O          6.2210   39.5450   21.0760 O.2    92  ARG92      -0.2867
     40  CB         5.4420   37.3590   18.8380 C.3    92  ARG92       0.0307
     41  CG         5.8030   35.9930   18.2840 C.3    92  ARG92       0.0489
     42  CD         5.7530   35.9880   16.7630 C.3    92  ARG92       0.2205
     43  NE         4.4160   36.2940   16.2520 N.pl3  92  ARG92      -0.0865
     44  CZ         4.0860   36.3420   14.9620 C.cat  92  ARG92       0.5346
     45  NH1        4.9910   36.1030   14.0200 N.pl3  92  ARG92       0.1354
     46  NH2        2.8410   36.6340   14.6130 N.pl3  92  ARG92       0.1354
     47  N          8.3590   34.1070   11.4790 N.3   104  GLY104     -0.1210
     48  CA         9.3480   33.0370   11.5150 C.3   104  GLY104      0.1956
     49  C          9.5860   32.4810   12.9040 C.2   104  GLY104      0.2611
     50  O          9.3340   33.1580   13.9060 O.2   104  GLY104     -0.2717
     51  N         10.0820   31.2440   12.9500 N.am  105  LYS105     -0.1979
     52  CA        10.3730   30.5530   14.2030 C.3   105  LYS105      0.1596
     53  C         11.5180   31.2090   14.9720 C.2   105  LYS105      0.2287
     54  O         11.4770   31.2860   16.2010 O.2   105  LYS105     -0.2864
     55  CB        10.7050   29.0850   13.9380 C.3   105  LYS105      0.0298
     56  CG        10.6300   28.2140   15.1770 C.3   105  LYS105      0.0038
     57  CD        11.5580   27.0240   15.0790 C.3   105  LYS105      0.0206
     58  CE        11.5350   26.2250   16.3660 C.3   105  LYS105      0.1093
     59  NZ        12.5900   25.1790   16.3810 N.3   105  LYS105     -0.1314
     60  N         10.3590   33.8280   17.3050 N.3   108  ALA108     -0.1245
     61  CA         9.6740   33.2450   18.4550 C.3   108  ALA108      0.1562
     62  C         10.6520   32.8670   19.5620 C.2   108  ALA108      0.2260
     63  O         10.4570   33.2310   20.7230 O.2   108  ALA108     -0.2867
     64  CB         8.8510   32.0350   18.0290 C.3   108  ALA108      0.0290
     65  N          9.6680   21.3700   20.3840 N.3   125  ASP125     -0.1225
     66  CA         8.6250   21.6940   19.4050 C.3   125  ASP125      0.1805
     67  C          7.2450   21.2620   19.8920 C.2   125  ASP125      0.2598
     68  O          7.1230   20.3170   20.6720 O.2   125  ASP125     -0.2718
     69  CB         8.9280   21.0650   18.0410 C.3   125  ASP125      0.1424
     70  CG        10.0730   21.7530   17.3100 C.2   125  ASP125      0.3668
     71  OD1       10.3180   22.9580   17.5400 O.co2 125  ASP125     -0.2456
     72  OD2       10.7260   21.0790   16.4870 O.co2 125  ASP125     -0.2456
     73  N          6.2140   21.9630   19.4280 N.am  126  SER126     -0.1938
     74  CA         4.8450   21.7210   19.8810 C.3   126  SER126      0.2055
     75  C          4.0160   20.8980   18.8940 C.2   126  SER126      0.2643
     76  O          2.8120   20.7080   19.0940 O.2   126  SER126     -0.2714
     77  CB         4.1440   23.0460   20.2000 C.3   126  SER126      0.2130
     78  OG         3.9440   23.8180   19.0310 O.3   126  SER126     -0.2179
     79  N          4.6600   20.4050   17.8380 N.am  127  ASP127     -0.1971
     80  CA         3.9910   19.5390   16.8660 C.3   127  ASP127      0.1709
     81  C          4.3850   18.0640   17.0260 C.2   127  ASP127      0.2293
     82  O          4.1430   17.2450   16.1330 O.2   127  ASP127     -0.2864
     83  CB         4.2400   20.0310   15.4300 C.3   127  ASP127      0.1436
     84  CG         5.6890   19.8690   14.9840 C.2   127  ASP127      0.3671
     85  OD1        6.6080   19.9130   15.8320 O.co2 127  ASP127     -0.2456
     86  OD2        5.9090   19.7050   13.7660 O.co2 127  ASP127     -0.2456
     87  N         13.3360   17.2970   10.6420 N.3   161  GLY161     -0.1225
     88  CA        14.3130   17.6250    9.6080 C.3   161  GLY161      0.1811
     89  C         14.2370   16.6830    8.4210 C.2   161  GLY161      0.2280
     90  O         14.0050   17.1210    7.2880 O.2   161  GLY161     -0.2866
     91  N         19.4740   20.2770   12.7280 N.3   187  LEU187     -0.1245
     92  CA        18.2450   21.0700   12.6700 C.3   187  LEU187      0.1561
     93  C         17.1750   20.5610   13.6410 C.2   187  LEU187      0.2260
     94  O         15.9750   20.7540   13.4170 O.2   187  LEU187     -0.2867
     95  CB        17.6930   21.0920   11.2400 C.3   187  LEU187      0.0270
     96  CG        18.6520   21.3270   10.0720 C.3   187  LEU187      0.0019
     97  CD1       17.9030   21.1890    8.7600 C.3   187  LEU187      0.0001
     98  CD2       19.3370   22.6840   10.1660 C.3   187  LEU187      0.0001
     99  N         14.7470   20.4480   16.6220 N.3   189  GLY189     -0.1225
    100  CA        13.9800   21.4330   17.3810 C.3   189  GLY189      0.1811
    101  C         14.0500   21.2520   18.8870 C.2   189  GLY189      0.2280
    102  O         13.6790   22.1540   19.6430 O.2   189  GLY189     -0.2866
    103  N         13.4420   29.2980    9.7390 N.3   207  TYR207     -0.1241
    104  CA        13.9500   27.9790   10.1180 C.3   207  TYR207      0.1605
    105  C         15.4750   27.9190   10.1630 C.2   207  TYR207      0.2264
    106  O         16.0560   26.8420   10.3110 O.2   207  TYR207     -0.2867
    107  CB        13.4010   26.9020    9.1800 C.3   207  TYR207      0.0534
    108  CG        11.9080   26.7310    9.2740 C.ar  207  TYR207     -0.0201
    109  CD1       11.0730   27.1920    8.2610 C.ar  207  TYR207     -0.0009
    110  CD2       11.3260   26.1170   10.3840 C.ar  207  TYR207     -0.0009
    111  CE1        9.6940   27.0440    8.3430 C.ar  207  TYR207      0.0417
    112  CE2        9.9470   25.9640   10.4800 C.ar  207  TYR207      0.0417
    113  CZ         9.1360   26.4290    9.4540 C.ar  207  TYR207      0.1957
    114  OH         7.7670   26.2820    9.5400 O.3   207  TYR207     -0.2866
    115  N         18.1530   27.3080   14.3020 N.3   210  GLU210     -0.1245
    116  CA        18.9310   26.1910   14.8500 C.3   210  GLU210      0.1567
    117  C         20.3490   26.1300   14.3010 C.2   210  GLU210      0.2260
    118  O         21.3120   26.1270   15.0670 O.2   210  GLU210     -0.2867
    119  CB        18.2340   24.8520   14.6060 C.3   210  GLU210      0.0388
    120  CG        17.1450   24.5250   15.6040 C.3   210  GLU210      0.1160
    121  CD        15.8910   25.3470   15.3930 C.2   210  GLU210      0.3649
    122  OE1       15.5290   25.5870   14.2210 O.co2 210  GLU210     -0.2457
    123  OE2       15.2690   25.7510   16.3990 O.co2 210  GLU210     -0.2457
    124  N         11.4720   10.1680   17.4880 N.3   234  ARG234     -0.1245
    125  CA        10.8030   11.4510   17.2580 C.3   234  ARG234      0.1563
    126  C          9.7930   11.3460   16.1160 C.2   234  ARG234      0.2260
    127  O          9.9840   10.5650   15.1800 O.2   234  ARG234     -0.2867
    128  CB        11.8220   12.5460   16.9660 C.3   234  ARG234      0.0307
    129  CG        11.2490   13.9460   16.9100 C.3   234  ARG234      0.0489
    130  CD        12.3100   14.9350   16.4470 C.3   234  ARG234      0.2205
    131  NE        11.7030   16.2610   16.4450 N.pl3 234  ARG234     -0.0865
    132  CZ        11.8600   17.2140   15.5600 C.cat 234  ARG234      0.5346
    133  NH1       12.6710   17.0690   14.5190 N.pl3 234  ARG234      0.1354
    134  NH2       11.1890   18.3370   15.7780 N.pl3 234  ARG234      0.1354
    135  N          6.7440   14.1370   14.0510 N.3   236  HIS236     -0.1226
    136  CA         5.9900   15.3880   13.9490 C.3   236  HIS236      0.1752
    137  C          5.2110   15.5100   12.6300 C.2   236  HIS236      0.2595
    138  O          4.8480   14.4970   12.0220 O.2   236  HIS236     -0.2718
    139  CB         6.9070   16.5870   14.1830 C.3   236  HIS236      0.0759
    140  CG         8.0750   16.6490   13.2530 C.ar  236  HIS236      0.0818
    141  ND1        8.1940   17.6130   12.2740 N.ar  236  HIS236     -0.2268
    142  CD2        9.1850   15.8790   13.1590 C.ar  236  HIS236      0.1154
    143  CE1        9.3230   17.4300   11.6140 C.ar  236  HIS236      0.1986
    144  NE2        9.9440   16.3850   12.1320 N.ar  236  HIS236     -0.2212
    145  N          4.9420   16.7450   12.2050 N.am  237  ARG237     -0.1980
    146  CA         4.1500   16.9920   10.9990 C.3   237  ARG237      0.1597
    147  C          4.9320   16.6650    9.7260 C.2   237  ARG237      0.2287
    148  O          6.0890   17.0690    9.5750 O.2   237  ARG237     -0.2864
    149  CB         3.6390   18.4340   10.9710 C.3   237  ARG237      0.0334
    150  CG         2.6070   18.5960   12.1300 C.3   237  ARG237      0.0492
    151  CD         2.2560   20.0790   12.1560 C.3   237  ARG237      0.2205
    152  NE         1.1560   20.3220   13.0810 N.pl3 237  ARG237     -0.0865
    153  CZ        -0.1390   20.4210   12.7140 C.cat 237  ARG237      0.5346
    154  NH1       -0.5650   20.1310   11.4840 N.pl3 237  ARG237      0.1354
    155  NH2       -1.0360   20.8570   13.6520 N.pl3 237  ARG237      0.1354
    156  N          5.9250   17.4110    6.3950 N.3   239  ARG239     -0.1245
    157  CA         5.9800   18.5610    5.4980 C.3   239  ARG239      0.1563
    158  C          6.1340   18.1360    4.0340 C.2   239  ARG239      0.2260
    159  O          6.9870   17.3020    3.7200 O.2   239  ARG239     -0.2867
    160  CB         7.1100   19.5050    5.9120 C.3   239  ARG239      0.0307
    161  CG         6.8740   20.0080    7.3340 C.3   239  ARG239      0.0489
    162  CD         8.0920   20.7560    7.7690 C.3   239  ARG239      0.2205
    163  NE         7.8060   21.3150    9.0780 N.pl3 239  ARG239     -0.0865
    164  CZ         8.7480   21.7710    9.8930 C.cat 239  ARG239      0.5346
    165  NH1       10.0470   21.7270    9.5130 N.pl3 239  ARG239      0.1354
    166  NH2        8.4190   22.2570   11.0770 N.pl3 239  ARG239      0.1354
    167  N         12.4820   25.7940    3.3310 N.3   247  MET247     -0.1245
    168  CA        13.2790   25.6360    4.5400 C.3   247  MET247      0.1570
    169  C         14.7550   25.4690    4.1930 C.2   247  MET247      0.2261
    170  O         15.6130   26.1160    4.8040 O.2   247  MET247     -0.2867
    171  CB        12.7650   24.4670    5.3810 C.3   247  MET247      0.0387
    172  CG        13.6310   24.1360    6.5830 C.3   247  MET247      0.0595
    173  SD        12.7280   23.2200    7.8390 S.3   247  MET247     -0.1393
    174  CE        13.7120   21.7200    7.9210 C.3   247  MET247      0.0692
    175  N         17.9470   27.6290    5.4250 N.3   251  VAL251     -0.1245
    176  CA        19.0770   26.9650    6.0700 C.3   251  VAL251      0.1561
    177  C         20.3750   27.3520    5.3530 C.2   251  VAL251      0.2260
    178  O         21.3590   27.7220    5.9970 O.2   251  VAL251     -0.2867
    179  CB        18.8890   25.4280    6.1230 C.3   251  VAL251      0.0252
    180  CG1       20.1670   24.7340    6.5760 C.3   251  VAL251      0.0019
    181  CG2       17.7470   25.0680    7.0570 C.3   251  VAL251      0.0019
@<TRIPOS>BOND
     1   167   168    1
     2   159   158    2
     3   158   157    1
     4   169   168    1
     5   169   170    2
     6   168   171    1
     7   177   178    2
     8   177   176    1
     9   171   172    1
    10   175   176    1
    11   157   160    1
    12   157   156    1
    13   160   161    1
    14   176   179    1
    15   179   180    1
    16   179   181    1
    17   172   173    1
    18    90    89    2
    19   161   162    1
    20   162   163    1
    21   173   174    1
    22   109   111   ar
    23   109   108   ar
    24   111   113   ar
    25    89    88    1
    26    97    96    1
    27   163   164    2
    28   107   108    1
    29   107   104    1
    30   108   110   ar
    31   113   114    1
    32   113   112   ar
    33   165   164    1
    34   148   147    2
    35    88    87    1
    36   147   146    1
    37   103   104    1
    38   164   166    1
    39    96    98    1
    40    96    95    1
    41   104   105    1
    42   105   106    2
    43   110   112   ar
    44   149   146    1
    45   149   150    1
    46   146   145    1
    47    95    92    1
    48    47    48    1
    49   154   153    1
    50    48    49    1
    51   143   144   ar
    52   143   141   ar
    53    20    18    1
    54   138   137    2
    55   150   151    1
    56   144   142   ar
    57   151   152    1
    58   145   137   am
    59   141   140   ar
    60   137   136    1
    61    92    91    1
    62    92    93    1
    63   153   152    2
    64   153   155    1
    65    49    51   am
    66    49    50    2
    67    18    19    1
    68    18    17    1
    69    51    52    1
    70   142   140   ar
    71   140   139    1
    72    94    93    2
    73    86    84   ar
    74    16    15    2
    75    55    52    1
    76    55    56    1
    77   136   135    1
    78   136   139    1
    79    45    44    1
    80    17    14    1
    81    52    53    1
    82   122   121   ar
    83   117   116    1
    84   117   118    2
    85   115   116    1
    86    29    27   ar
    87   133   132    1
    88   119   116    1
    89   119   120    1
    90    46    44    1
    91    15    14    1
    92    33    32    2
    93    44    43    2
    94    53    54    2
    95    84    83    1
    96    84    85   ar
    97    57    56    1
    98    57    58    1
    99   127   126    2
   100    14    13    1
   101   121   120    1
   102   121   123   ar
   103    27    28   ar
   104    27    26    1
   105    83    80    1
   106   132   134    1
   107   132   131    2
   108    34    35    1
   109    34    31    1
   110   126   125    1
   111    82    81    2
   112    32    31    1
   113    43    42    1
   114    13    10   am
   115    26    25    1
   116    58    59    1
   117    21    22    1
   118   131   130    1
   119   130   129    1
   120    72    70   ar
   121    99   100    1
   122    22    25    1
   123    22    23    1
   124    42    41    1
   125    80    81    1
   126    80    79    1
   127   129   128    1
   128    31    30    1
   129   128   125    1
   130   125   124    1
   131    60    61    1
   132    70    71   ar
   133    70    69    1
   134   100   101    1
   135    10    11    2
   136    10     9    1
   137    23    24    2
   138    79    75   am
   139    64    61    1
   140    69    66    1
   141    41    40    1
   142    61    62    1
   143     9     8    1
   144     9    12    1
   145    40    37    1
   146   101   102    2
   147    75    76    2
   148    75    74    1
   149     5     6    1
   150     5     2    1
   151    78    77    1
   152     8     3   am
   153     4     3    2
   154     3     2    1
   155     6     7    1
   156    66    67    1
   157    66    65    1
   158    73    74    1
   159    73    67   am
   160    62    63    2
   161    74    77    1
   162    67    68    2
   163     2     1    1
   164    37    38    1
   165    37    36    1
   166    38    39    2
   167     7     1    1
