@<TRIPOS>MOLECULE
tmp/3ckrC00.pdb
 233 220 0 0 0
SMALL
GASTEIGER

@<TRIPOS>ATOM
      1  N         61.6190  -33.7070   16.9870 N.3    16  GLY16      -0.1210
      2  CA        62.5560  -34.6370   16.3820 C.3    16  GLY16       0.1956
      3  C         61.9750  -35.5590   15.3230 C.2    16  GLY16       0.2612
      4  O         62.7010  -36.3770   14.7480 O.2    16  GLY16      -0.2717
      5  N         60.6720  -35.4430   15.0690 N.am   17  GLN17      -0.1965
      6  CA        60.0250  -36.2700   14.0670 C.3    17  GLN17       0.1733
      7  C         59.4890  -35.4200   12.9230 C.2    17  GLN17       0.2616
      8  O         58.6070  -35.8510   12.1820 O.2    17  GLN17      -0.2715
      9  CB        58.8980  -37.0930   14.6880 C.3    17  GLN17       0.0408
     10  CG        59.3570  -38.0020   15.8120 C.3    17  GLN17       0.0908
     11  CD        58.2960  -39.0050   16.2150 C.2    17  GLN17       0.2608
     12  OE1       57.1030  -38.7510   16.0640 O.2    17  GLN17      -0.2717
     13  NE2       58.7250  -40.1490   16.7430 N.am   17  GLN17      -0.0878
     14  N         60.0250  -34.2100   12.7850 N.am   18  GLY18      -0.1955
     15  CA        59.6220  -33.3220   11.7030 C.3    18  GLY18       0.1869
     16  C         58.3310  -32.5080   11.7540 C.2    18  GLY18       0.2309
     17  O         57.4130  -32.7400   12.5590 O.2    18  GLY18      -0.2863
     18  N         55.0750  -34.4510    5.6040 N.3    35  LEU35      -0.1245
     19  CA        56.2900  -33.8730    6.1480 C.3    35  LEU35       0.1561
     20  C         56.8690  -32.9220    5.1030 C.2    35  LEU35       0.2260
     21  O         56.7370  -33.1620    3.9030 O.2    35  LEU35      -0.2867
     22  CB        57.2750  -34.9940    6.4570 C.3    35  LEU35       0.0270
     23  CG        58.7000  -34.6090    6.8230 C.3    35  LEU35       0.0019
     24  CD1       58.6870  -33.6730    8.0110 C.3    35  LEU35       0.0001
     25  CD2       59.4860  -35.8750    7.1280 C.3    35  LEU35       0.0001
     26  N         60.1610  -31.5320    3.5540 N.3    37  ASP37      -0.1239
     27  CA        61.6050  -31.7460    3.4790 C.3    37  ASP37       0.1674
     28  C         62.2270  -30.9560    2.3300 C.2    37  ASP37       0.2266
     29  O         62.2930  -31.4310    1.1950 O.2    37  ASP37      -0.2867
     30  CB        61.8740  -33.2510    3.3310 C.3    37  ASP37       0.1410
     31  CG        63.3540  -33.6120    3.4220 C.2    37  ASP37       0.3668
     32  OD1       64.0280  -33.1650    4.3690 O.co2  37  ASP37      -0.2456
     33  OD2       63.8420  -34.3670    2.5500 O.co2  37  ASP37      -0.2456
     34  N         64.8830  -30.6800    1.5960 N.3    39  GLY39      -0.1210
     35  CA        66.0850  -31.3660    1.1710 C.3    39  GLY39       0.1956
     36  C         65.8060  -32.6190    0.3520 C.2    39  GLY39       0.2612
     37  O         66.5110  -33.6220    0.4860 O.2    39  GLY39      -0.2717
     38  N         64.7710  -32.5740   -0.4840 N.am   40  SER40      -0.1952
     39  CA        64.4230  -33.7050   -1.3460 C.3    40  SER40       0.1924
     40  C         63.5420  -33.2150   -2.4870 C.2    40  SER40       0.2314
     41  O         63.1320  -32.0600   -2.5020 O.2    40  SER40      -0.2863
     42  CB        63.6950  -34.8030   -0.5590 C.3    40  SER40       0.2116
     43  OG        62.4610  -34.3450   -0.0510 O.3    40  SER40      -0.2180
     44  N         61.2960  -35.8050   -4.2650 N.3    42  ASN42      -0.1240
     45  CA        60.2550  -36.7830   -4.4780 C.3    42  ASN42       0.1653
     46  C         59.0700  -36.5660   -3.5510 C.2    42  ASN42       0.2266
     47  O         59.2050  -36.6670   -2.3270 O.2    42  ASN42      -0.2867
     48  CB        60.8060  -38.1920   -4.2490 C.3    42  ASN42       0.1155
     49  CG        62.0040  -38.5010   -5.1240 C.2    42  ASN42       0.2627
     50  OD1       62.9460  -37.7040   -5.2270 O.2    42  ASN42      -0.2716
     51  ND2       61.9850  -39.6730   -5.7480 N.am   42  ASN42      -0.0877
     52  N         63.3900  -45.0870   -2.8470 N.3    74  VAL74      -0.1231
     53  CA        64.1990  -43.9050   -2.5790 C.3    74  VAL74       0.1678
     54  C         64.8700  -44.0540   -1.2250 C.2    74  VAL74       0.2434
     55  O         64.2110  -44.2890   -0.2120 O.2    74  VAL74      -0.2733
     56  CB        63.3670  -42.6030   -2.6120 C.3    74  VAL74       0.0265
     57  CG1       64.2160  -41.4330   -2.1730 C.3    74  VAL74       0.0020
     58  CG2       62.8810  -42.3380   -4.0140 C.3    74  VAL74       0.0020
     59  N         66.2100  -43.9610   -1.2070 N.am   75  PRO75      -0.2718
     60  CA        67.0390  -44.0740   -0.0100 C.3    75  PRO75       0.1535
     61  C         67.3200  -42.7160    0.6320 C.2    75  PRO75       0.2599
     62  O         68.0540  -41.8780    0.0850 O.2    75  PRO75      -0.2715
     63  CB        68.3040  -44.7210   -0.5470 C.3    75  PRO75       0.0310
     64  CG        68.4660  -44.0160   -1.8430 C.3    75  PRO75       0.0237
     65  CD        67.0550  -44.0180   -2.4150 C.3    75  PRO75       0.0939
     66  N         66.7050  -42.4960    1.7850 N.am   76  TYR76      -0.1960
     67  CA        66.9150  -41.2680    2.5270 C.3    76  TYR76       0.1771
     68  C         68.0100  -41.6870    3.5010 C.2    76  TYR76       0.2620
     69  O         67.8710  -42.7170    4.1560 O.2    76  TYR76      -0.2715
     70  CB        65.6230  -40.8670    3.2520 C.3    76  TYR76       0.0574
     71  CG        64.4950  -40.4320    2.3170 C.ar   76  TYR76      -0.0198
     72  CD1       64.6770  -39.3850    1.4120 C.ar   76  TYR76      -0.0009
     73  CD2       63.2450  -41.0600    2.3440 C.ar   76  TYR76      -0.0009
     74  CE1       63.6420  -38.9720    0.5530 C.ar   76  TYR76       0.0417
     75  CE2       62.2040  -40.6490    1.4880 C.ar   76  TYR76       0.0417
     76  CZ        62.4140  -39.6070    0.5990 C.ar   76  TYR76       0.1957
     77  OH        61.4100  -39.1850   -0.2400 O.3    76  TYR76      -0.2866
     78  N         69.0990  -40.9140    3.5640 N.am   77  THR77      -0.1937
     79  CA        70.2560  -41.2200    4.4240 C.3    77  THR77       0.2028
     80  C         70.0110  -42.4300    5.3220 C.2    77  THR77       0.2642
     81  O         70.7240  -43.4260    5.2200 O.2    77  THR77      -0.2714
     82  CB        70.6850  -40.0060    5.2820 C.3    77  THR77       0.1808
     83  OG1       70.7360  -38.8290    4.4600 O.3    77  THR77      -0.2208
     84  CG2       72.0850  -40.2410    5.8600 C.3    77  THR77       0.0379
     85  N         69.0280  -42.3460    6.2130 N.am   78  GLN78      -0.1976
     86  CA        68.6870  -43.5020    7.0250 C.3    78  GLN78       0.1601
     87  C         67.2790  -43.9260    6.6380 C.2    78  GLN78       0.2287
     88  O         66.3370  -43.1330    6.7480 O.2    78  GLN78      -0.2864
     89  CB        68.7150  -43.2170    8.5240 C.3    78  GLN78       0.0394
     90  CG        67.9280  -44.2920    9.2920 C.3    78  GLN78       0.0908
     91  CD        68.3310  -44.4550   10.7420 C.2    78  GLN78       0.2608
     92  OE1       67.6290  -45.1110   11.5120 O.2    78  GLN78      -0.2717
     93  NE2       69.4680  -43.8740   11.1220 N.am   78  GLN78      -0.0878
     94  N         62.4070  -48.4410    7.5700 N.3   112  LYS112     -0.1231
     95  CA        62.9370  -47.4090    8.4570 C.3   112  LYS112      0.1693
     96  C         62.5580  -45.9810    8.0270 C.2   112  LYS112      0.2592
     97  O         63.2630  -45.0110    8.3360 O.2   112  LYS112     -0.2718
     98  CB        64.4630  -47.5490    8.5400 C.3   112  LYS112      0.0285
     99  CG        64.9180  -48.9440    8.9670 C.3   112  LYS112      0.0035
    100  CD        66.4260  -49.0230    9.2140 C.3   112  LYS112      0.0206
    101  CE        67.2390  -48.7290    7.9600 C.3   112  LYS112      0.1093
    102  NZ        68.6960  -48.8960    8.2140 N.3   112  LYS112     -0.1314
    103  N         61.4310  -45.8580    7.3320 N.am  113  PHE113     -0.1976
    104  CA        60.9550  -44.5670    6.8490 C.3   113  PHE113      0.1639
    105  C         59.8020  -44.0100    7.6750 C.2   113  PHE113      0.2290
    106  O         59.8990  -42.9170    8.2300 O.2   113  PHE113     -0.2864
    107  CB        60.5060  -44.6880    5.4000 C.3   113  PHE113      0.0560
    108  CG        59.9410  -43.4280    4.8450 C.ar  113  PHE113     -0.0200
    109  CD1       60.7700  -42.3670    4.5290 C.ar  113  PHE113     -0.0042
    110  CD2       58.5780  -43.2970    4.6420 C.ar  113  PHE113     -0.0042
    111  CE1       60.2520  -41.1850    4.0140 C.ar  113  PHE113     -0.0003
    112  CE2       58.0490  -42.1180    4.1280 C.ar  113  PHE113     -0.0003
    113  CZ        58.8920  -41.0590    3.8130 C.ar  113  PHE113     -0.0000
    114  N         57.4940  -43.5130   10.7880 N.3   115  ILE115     -0.1245
    115  CA        57.7240  -43.5770   12.2210 C.3   115  ILE115      0.1561
    116  C         56.4590  -43.7900   13.0280 C.2   115  ILE115      0.2260
    117  O         55.4080  -43.2230   12.7240 O.2   115  ILE115     -0.2867
    118  CB        58.4040  -42.3010   12.7080 C.3   115  ILE115      0.0252
    119  CG1       59.6370  -42.0250   11.8430 C.3   115  ILE115      0.0019
    120  CG2       58.7900  -42.4510   14.1720 C.3   115  ILE115      0.0019
    121  CD1       60.2790  -40.6880   12.0900 C.3   115  ILE115      0.0001
    122  N         52.1740  -38.2380   10.6200 N.3   120  TRP120     -0.1241
    123  CA        52.2450  -37.8620    9.2200 C.3   120  TRP120      0.1605
    124  C         52.4090  -39.1830    8.4640 C.2   120  TRP120      0.2264
    125  O         52.8720  -40.1750    9.0320 O.2   120  TRP120     -0.2867
    126  CB        53.4030  -36.8940    8.9250 C.3   120  TRP120      0.0550
    127  CG        54.7680  -37.3580    9.2900 C.ar  120  TRP120      0.0003
    128  CD1       55.4530  -37.0430   10.4160 C.ar  120  TRP120      0.0946
    129  CD2       55.6350  -38.1930    8.5080 C.ar  120  TRP120      0.0152
    130  NE1       56.6990  -37.6230   10.3930 N.ar  120  TRP120     -0.2442
    131  CE2       56.8370  -38.3380    9.2330 C.ar  120  TRP120      0.0810
    132  CE3       55.5140  -38.8340    7.2640 C.ar  120  TRP120      0.0012
    133  CZ2       57.9180  -39.1000    8.7570 C.ar  120  TRP120      0.0191
    134  CZ3       56.5910  -39.5920    6.7890 C.ar  120  TRP120      0.0001
    135  CH2       57.7750  -39.7160    7.5380 C.ar  120  TRP120      0.0015
    136  N         55.6970  -37.3870    2.6010 N.3   123  ILE123     -0.1245
    137  CA        56.7440  -36.3780    2.6290 C.3   123  ILE123      0.1561
    138  C         56.6890  -35.5330    1.3690 C.2   123  ILE123      0.2260
    139  O         56.5390  -36.0570    0.2740 O.2   123  ILE123     -0.2867
    140  CB        58.1470  -37.0130    2.7510 C.3   123  ILE123      0.0252
    141  CG1       59.2270  -35.9160    2.6630 C.3   123  ILE123      0.0019
    142  CG2       58.3310  -38.0710    1.6760 C.3   123  ILE123      0.0019
    143  CD1       60.6610  -36.3850    2.9960 C.3   123  ILE123      0.0001
    144  N         67.4510  -33.7360   -8.4570 N.3   131  ILE131     -0.1245
    145  CA        67.7020  -34.8700   -7.5500 C.3   131  ILE131      0.1561
    146  C         66.5130  -35.7390   -7.1380 C.2   131  ILE131      0.2260
    147  O         66.5000  -36.2800   -6.0300 O.2   131  ILE131     -0.2867
    148  CB        68.4190  -34.4600   -6.2320 C.3   131  ILE131      0.0252
    149  CG1       67.8430  -33.1510   -5.6910 C.3   131  ILE131      0.0019
    150  CG2       69.9240  -34.4020   -6.4580 C.3   131  ILE131      0.0019
    151  CD1       68.4090  -32.7530   -4.3370 C.3   131  ILE131      0.0001
    152  N         64.0930  -39.1730   -7.4890 N.3   133  ARG133     -0.1245
    153  CA        64.3150  -40.5760   -7.8440 C.3   133  ARG133      0.1563
    154  C         63.1250  -41.0680   -8.6810 C.2   133  ARG133      0.2260
    155  O         62.0250  -40.5200   -8.5670 O.2   133  ARG133     -0.2867
    156  CB        64.4190  -41.4570   -6.5880 C.3   133  ARG133      0.0307
    157  CG        65.4480  -41.0400   -5.5480 C.3   133  ARG133      0.0489
    158  CD        66.8530  -40.9380   -6.1310 C.3   133  ARG133      0.2205
    159  NE        67.8740  -40.8540   -5.0880 N.pl3 133  ARG133     -0.0865
    160  CZ        68.4010  -41.9070   -4.4670 C.cat 133  ARG133      0.5346
    161  NH1       68.0070  -43.1310   -4.7920 N.pl3 133  ARG133      0.1354
    162  NH2       69.3180  -41.7370   -3.5180 N.pl3 133  ARG133      0.1354
    163  N         70.1110  -28.7250   -4.6100 N.3   191  TYR191     -0.1241
    164  CA        69.7820  -28.9380   -3.2170 C.3   191  TYR191      0.1605
    165  C         69.6280  -27.4960   -2.8160 C.2   191  TYR191      0.2264
    166  O         69.6350  -26.6230   -3.6850 O.2   191  TYR191     -0.2867
    167  CB        70.9810  -29.5170   -2.4910 C.3   191  TYR191      0.0534
    168  CG        70.8610  -30.9550   -2.0790 C.ar  191  TYR191     -0.0201
    169  CD1       69.9430  -31.3460   -1.1040 C.ar  191  TYR191     -0.0009
    170  CD2       71.7360  -31.9160   -2.5880 C.ar  191  TYR191     -0.0009
    171  CE1       69.9090  -32.6640   -0.6300 C.ar  191  TYR191      0.0417
    172  CE2       71.7120  -33.2340   -2.1260 C.ar  191  TYR191      0.0417
    173  CZ        70.8010  -33.5990   -1.1420 C.ar  191  TYR191      0.1957
    174  OH        70.8140  -34.8790   -0.6410 O.3   191  TYR191     -0.2866
    175  N         73.8420  -27.6290    3.1890 N.3   219  ILE219     -0.1245
    176  CA        72.4890  -27.3170    2.7340 C.3   219  ILE219      0.1561
    177  C         71.5010  -26.9050    3.8180 C.2   219  ILE219      0.2260
    178  O         71.7790  -27.0140    5.0130 O.2   219  ILE219     -0.2867
    179  CB        71.8640  -28.5260    1.9870 C.3   219  ILE219      0.0252
    180  CG1       71.9790  -29.7830    2.8580 C.3   219  ILE219      0.0019
    181  CG2       72.5380  -28.7180    0.6320 C.3   219  ILE219      0.0019
    182  CD1       71.2190  -30.9790    2.3190 C.3   219  ILE219      0.0001
    183  N         68.0890  -27.9650    5.2250 N.3   221  ASP221     -0.1239
    184  CA        67.1300  -29.0650    5.1860 C.3   221  ASP221      0.1674
    185  C         66.1020  -29.1990    6.3080 C.2   221  ASP221      0.2266
    186  O         66.3980  -29.7440    7.3760 O.2   221  ASP221     -0.2867
    187  CB        67.8770  -30.3950    5.0700 C.3   221  ASP221      0.1410
    188  CG        66.9410  -31.5850    5.0980 C.2   221  ASP221      0.3668
    189  OD1       66.2170  -31.7930    4.1010 O.co2 221  ASP221     -0.2456
    190  OD2       66.9170  -32.3010    6.1200 O.co2 221  ASP221     -0.2456
    191  N         63.9640  -31.2040    6.6790 N.3   223  GLY223     -0.1210
    192  CA        63.6910  -32.5940    6.9850 C.3   223  GLY223      0.1956
    193  C         64.7290  -33.1780    7.9210 C.2   223  GLY223      0.2613
    194  O         64.6860  -34.3750    8.2320 O.2   223  GLY223     -0.2717
    195  N         65.6720  -32.3480    8.3660 N.am  224  THR224     -0.1938
    196  CA        66.6880  -32.8300    9.2960 C.3   224  THR224      0.2028
    197  C         66.6200  -32.1230   10.6410 C.2   224  THR224      0.2642
    198  O         66.5640  -30.9000   10.7160 O.2   224  THR224     -0.2714
    199  CB        68.1260  -32.7010    8.7270 C.3   224  THR224      0.1808
    200  OG1       68.2920  -33.6070    7.6230 O.3   224  THR224     -0.2208
    201  CG2       69.1600  -33.0530    9.8120 C.3   224  THR224      0.0379
    202  N         66.6310  -32.9240   11.6980 N.am  225  THR225     -0.1950
    203  CA        66.5630  -32.4320   13.0630 C.3   225  THR225      0.1897
    204  C         67.7190  -31.5220   13.4620 C.2   225  THR225      0.2313
    205  O         67.5280  -30.3340   13.7210 O.2   225  THR225     -0.2863
    206  CB        66.5630  -33.5960   14.0720 C.3   225  THR225      0.1794
    207  OG1       65.5350  -34.5310   13.7370 O.3   225  THR225     -0.2208
    208  CG2       66.3220  -33.0760   15.4640 C.3   225  THR225      0.0378
    209  N         74.1780  -30.5320   11.0630 N.3   228  ARG228     -0.1245
    210  CA        75.2580  -31.4470   10.7200 C.3   228  ARG228      0.1563
    211  C         76.4710  -30.7240   10.1460 C.2   228  ARG228      0.2260
    212  O         76.3450  -29.8140    9.3200 O.2   228  ARG228     -0.2867
    213  CB        74.7490  -32.5320    9.7590 C.3   228  ARG228      0.0307
    214  CG        73.5680  -33.3630   10.3170 C.3   228  ARG228      0.0489
    215  CD        73.6870  -34.8660    9.9960 C.3   228  ARG228      0.2205
    216  NE        73.7030  -35.1440    8.5580 N.pl3 228  ARG228     -0.0865
    217  CZ        74.3360  -36.1760    7.9980 C.cat 228  ARG228      0.5346
    218  NH1       74.2970  -36.3490    6.6800 N.pl3 228  ARG228      0.1354
    219  NH2       75.0210  -37.0330    8.7530 N.pl3 228  ARG228      0.1354
    220  N         78.6980  -36.5310    4.6470 N.3   320  THR320     -0.1218
    221  CA        78.0470  -35.9840    3.4700 C.3   320  THR320      0.1862
    222  C         78.1410  -34.4630    3.4120 C.2   320  THR320      0.2287
    223  O         77.7780  -33.8530    2.4040 O.2   320  THR320     -0.2866
    224  CB        76.5460  -36.4010    3.4300 C.3   320  THR320      0.1770
    225  OG1       75.7110  -35.2320    3.4650 O.3   320  THR320     -0.2211
    226  CG2       76.2100  -37.3190    4.6240 C.3   320  THR320      0.0375
    227  N         74.5510  -30.0630    7.2440 N.3   323  VAL323     -0.1245
    228  CA        73.0900  -30.0220    7.2150 C.3   323  VAL323      0.1561
    229  C         72.5310  -28.9690    8.1840 C.2   323  VAL323      0.2260
    230  O         72.4900  -29.1760    9.4020 O.2   323  VAL323     -0.2867
    231  CB        72.4810  -31.3980    7.6040 C.3   323  VAL323      0.0252
    232  CG1       71.0040  -31.4100    7.2960 C.3   323  VAL323      0.0019
    233  CG2       73.2110  -32.5310    6.8840 C.3   323  VAL323      0.0019
@<TRIPOS>BOND
     1   154   155    2
     2   154   153    1
     3   144   145    1
     4   153   152    1
     5   153   156    1
     6   145   146    1
     7   145   148    1
     8   146   147    2
     9   156   157    1
    10   150   148    1
    11   148   149    1
    12   158   157    1
    13   158   159    1
    14    51    49   am
    15   149   151    1
    16    50    49    2
    17    49    48    1
    18   159   160    2
    19   161   160    1
    20   163   164    1
    21    45    44    1
    22    45    48    1
    23    45    46    1
    24   160   162    1
    25    58    56    1
    26   166   165    2
    27    46    47    2
    28   164   165    1
    29   164   167    1
    30    52    53    1
    31    56    53    1
    32    56    57    1
    33   170   172   ar
    34   170   168   ar
    35    53    54    1
    36    41    40    2
    37   167   168    1
    38    40    39    1
    39    65    64    1
    40    65    59    1
    41   172   173   ar
    42   168   169   ar
    43    64    63    1
    44    39    42    1
    45    39    38    1
    46    54    59   am
    47    54    55    2
    48    59    60    1
    49   173   174    1
    50   173   171   ar
    51   169   171   ar
    52    42    43    1
    53    63    60    1
    54    38    36   am
    55    77    76    1
    56    60    61    1
    57    62    61    2
    58   139   138    2
    59    36    37    2
    60    36    35    1
    61    74    76   ar
    62    74    72   ar
    63    76    75   ar
    64    61    66   am
    65   181   179    1
    66    35    34    1
    67    29    28    2
    68   138   137    1
    69    72    71   ar
    70    75    73   ar
    71   142   140    1
    72    66    67    1
    73   179   176    1
    74   179   180    1
    75    71    73   ar
    76    71    70    1
    77   182   180    1
    78    28    27    1
    79   223   222    2
    80    67    70    1
    81    67    68    1
    82    33    31   ar
    83   136   137    1
    84   137   140    1
    85   141   140    1
    86   141   143    1
    87   176   175    1
    88   176   177    1
    89    30    31    1
    90    30    27    1
    91   222   221    1
    92    31    32   ar
    93   224   225    1
    94   224   221    1
    95   224   226    1
    96   221   220    1
    97    27    26    1
    98    68    78   am
    99    68    69    2
   100    78    79    1
   101   113   111   ar
   102   113   112   ar
   103   177   178    2
   104    21    20    2
   105   111   109   ar
   106   189   188   ar
   107   112   110   ar
   108    79    82    1
   109    79    80    1
   110    83    82    1
   111   109   108   ar
   112   110   108   ar
   113   108   107    1
   114   187   188    1
   115   187   184    1
   116   188   190   ar
   117    20    19    1
   118   184   183    1
   119   184   185    1
   120    81    80    2
   121    82    84    1
   122    80    85   am
   123   107   104    1
   124    18    19    1
   125    19    22    1
   126    85    86    1
   127   185   186    2
   128    22    23    1
   129    87    88    2
   130    87    86    1
   131   191   192    1
   132   218   217    1
   133   134   132   ar
   134   134   135   ar
   135    23    25    1
   136    23    24    1
   137   104   103    1
   138   104   105    1
   139   233   231    1
   140   192   193    1
   141    86    89    1
   142   228   227    1
   143   228   231    1
   144   228   229    1
   145   132   129   ar
   146   232   231    1
   147   103    96   am
   148   135   133   ar
   149    94    95    1
   150   200   199    1
   151   105   106    2
   152   193   194    2
   153   193   195   am
   154   101   102    1
   155   101   100    1
   156   217   216    2
   157   217   219    1
   158    96    97    2
   159    96    95    1
   160   229   230    2
   161   195   196    1
   162    95    98    1
   163   124   125    2
   164   124   123    1
   165   129   131   ar
   166   129   127   ar
   167    89    90    1
   168    98    99    1
   169   216   215    1
   170   199   196    1
   171   199   201    1
   172   133   131   ar
   173   126   123    1
   174   126   127    1
   175    99   100    1
   176   123   122    1
   177   131   130   ar
   178   127   128   ar
   179    90    91    1
   180   196   197    1
   181   212   211    2
   182   213   214    1
   183   213   210    1
   184   215   214    1
   185   211   210    1
   186   130   128   ar
   187   197   198    2
   188   197   202   am
   189   210   209    1
   190    91    93   am
   191    91    92    2
   192   114   115    1
   193   202   203    1
   194    15    16    1
   195    15    14    1
   196    16    17    2
   197   119   121    1
   198   119   118    1
   199     8     7    2
   200   115   118    1
   201   115   116    1
   202   118   120    1
   203   117   116    2
   204    14     7   am
   205     7     6    1
   206   203   204    1
   207   203   206    1
   208   204   205    2
   209   207   206    1
   210     6     9    1
   211     6     5    1
   212   206   208    1
   213     9    10    1
   214     4     3    2
   215     5     3   am
   216     3     2    1
   217    10    11    1
   218    12    11    2
   219    11    13   am
   220     2     1    1
