@<TRIPOS>MOLECULE
tmp/3cktB00.pdb
 105 98 0 0 0
SMALL
GASTEIGER

@<TRIPOS>ATOM
      1  N          4.2690    5.6430  -27.6570 N.3     8  ARG8       -0.1245
      2  CA         3.5690    4.9090  -26.5900 C.3     8  ARG8        0.1563
      3  C          2.4620    4.0240  -27.1520 C.2     8  ARG8        0.2260
      4  O          1.6650    4.4770  -27.9870 O.2     8  ARG8       -0.2867
      5  CB         2.9770    5.8690  -25.5670 C.3     8  ARG8        0.0307
      6  CG         4.0230    6.5010  -24.6620 C.3     8  ARG8        0.0489
      7  CD         3.3560    7.6200  -23.8640 C.3     8  ARG8        0.2205
      8  NE         3.6620    7.4760  -22.4480 N.pl3   8  ARG8       -0.0865
      9  CZ         3.0000    8.0850  -21.4740 C.cat   8  ARG8        0.5346
     10  NH1        1.9870    8.8900  -21.7710 N.pl3   8  ARG8        0.1354
     11  NH2        3.3650    7.8760  -20.2190 N.pl3   8  ARG8        0.1354
     12  N         -2.7850    2.7360  -21.9870 N.3    23  LEU23      -0.1245
     13  CA        -1.4410    2.2890  -22.3540 C.3    23  LEU23       0.1561
     14  C         -1.2350    0.8040  -22.0940 C.2    23  LEU23       0.2260
     15  O         -1.4990    0.2970  -21.0040 O.2    23  LEU23      -0.2867
     16  CB        -0.4480    3.1230  -21.5530 C.3    23  LEU23       0.0270
     17  CG         1.0280    2.7710  -21.6170 C.3    23  LEU23       0.0019
     18  CD1        1.5910    3.1470  -22.9700 C.3    23  LEU23       0.0001
     19  CD2        1.7640    3.4660  -20.4730 C.3    23  LEU23       0.0001
     20  N          0.8770   -1.8850  -20.9490 N.3    25  ASP25      -0.1239
     21  CA         2.0470   -1.8060  -20.0760 C.3    25  ASP25       0.1674
     22  C          2.4550   -3.1750  -19.5570 C.2    25  ASP25       0.2266
     23  O          1.9060   -3.7240  -18.6060 O.2    25  ASP25      -0.2867
     24  CB         1.7370   -0.8600  -18.9140 C.3    25  ASP25       0.1410
     25  CG         2.9160   -0.5220  -18.0410 C.2    25  ASP25       0.3668
     26  OD1        3.9580   -1.1840  -18.1740 O.co2  25  ASP25      -0.2456
     27  OD2        2.7960    0.4080  -17.2150 O.co2  25  ASP25      -0.2456
     28  N          4.9770   -3.8290  -17.9910 N.3    27  GLY27      -0.1210
     29  CA         5.5750   -3.6510  -16.6810 C.3    27  GLY27       0.1956
     30  C          4.5860   -3.6250  -15.5330 C.2    27  GLY27       0.2612
     31  O          4.9360   -3.6200  -14.3500 O.2    27  GLY27      -0.2717
     32  N          3.2940   -3.5800  -15.8320 N.am   28  ALA28      -0.1965
     33  CA         2.2360   -3.4990  -14.8430 C.3    28  ALA28       0.1728
     34  C          1.5950   -4.8510  -14.5650 C.2    28  ALA28       0.2616
     35  O          1.0890   -5.4990  -15.4740 O.2    28  ALA28      -0.2715
     36  CB         1.1600   -2.5310  -15.2970 C.3    28  ALA28       0.0334
     37  N          1.5900   -5.3290  -13.3170 N.am   29  ASP29      -0.1957
     38  CA         0.9160   -6.5940  -13.0610 C.3    29  ASP29       0.1840
     39  C         -0.5970   -6.4870  -13.2630 C.2    29  ASP29       0.2622
     40  O         -1.2180   -7.4320  -13.7240 O.2    29  ASP29      -0.2715
     41  CB         1.1190   -7.0360  -11.6010 C.3    29  ASP29       0.1450
     42  CG         2.5680   -7.3700  -11.3270 C.2    29  ASP29       0.3671
     43  OD1        3.3430   -7.6440  -12.2660 O.co2  29  ASP29      -0.2456
     44  OD2        2.9350   -7.3440  -10.1270 O.co2  29  ASP29      -0.2456
     45  N         -1.1080   -5.3260  -12.8490 N.am   30  ASP30      -0.1971
     46  CA        -2.5010   -4.9660  -12.8240 C.3    30  ASP30       0.1709
     47  C         -2.9030   -3.8550  -13.7980 C.2    30  ASP30       0.2293
     48  O         -2.0940   -3.1190  -14.3590 O.2    30  ASP30      -0.2864
     49  CB        -2.8660   -4.4770  -11.4170 C.3    30  ASP30       0.1436
     50  CG        -2.4250   -5.4490  -10.3420 C.2    30  ASP30       0.3671
     51  OD1       -1.6830   -4.9810   -9.4530 O.co2  30  ASP30      -0.2456
     52  OD2       -2.8260   -6.6300  -10.4060 O.co2  30  ASP30      -0.2456
     53  N         -5.0720   -0.4650  -14.2290 N.3    32  VAL32      -0.1245
     54  CA        -5.4280    0.6590  -13.3800 C.3    32  VAL32       0.1561
     55  C         -5.9290    1.8090  -14.2430 C.2    32  VAL32       0.2260
     56  O         -5.1750    2.3140  -15.0720 O.2    32  VAL32      -0.2867
     57  CB        -4.2340    1.1590  -12.5430 C.3    32  VAL32       0.0252
     58  CG1       -4.7390    2.1560  -11.5070 C.3    32  VAL32       0.0019
     59  CG2       -3.4940    0.0110  -11.8770 C.3    32  VAL32       0.0019
     60  N         -1.7060   -0.3340   -4.1420 N.3    47  ILE47      -0.1231
     61  CA        -0.7470   -0.7860   -5.1290 C.3    47  ILE47       0.1692
     62  C          0.4070    0.2070   -5.1120 C.2    47  ILE47       0.2593
     63  O          0.2410    1.3720   -4.7850 O.2    47  ILE47      -0.2718
     64  CB        -1.2750   -0.9040   -6.5640 C.3    47  ILE47       0.0266
     65  CG1       -1.8770    0.3930   -7.1090 C.3    47  ILE47       0.0019
     66  CG2       -2.2650   -2.0460   -6.6760 C.3    47  ILE47       0.0020
     67  CD1       -2.1950    0.3480   -8.5890 C.3    47  ILE47       0.0001
     68  N          1.6020   -0.2630   -5.4680 N.am   48  GLY48      -0.1942
     69  CA         2.6660    0.7210   -5.3070 C.3    48  GLY48       0.2014
     70  C          3.6230    0.7470   -6.4730 C.2    48  GLY48       0.2639
     71  O          3.7140   -0.2450   -7.1880 O.2    48  GLY48      -0.2714
     72  N          4.2770    1.8810   -6.5850 N.am   49  GLY49      -0.1939
     73  CA         5.3070    2.2380   -7.5280 C.3    49  GLY49       0.2014
     74  C          6.6470    2.3650   -6.8320 C.2    49  GLY49       0.2638
     75  O          6.8010    1.8870   -5.7050 O.2    49  GLY49      -0.2714
     76  N          7.6220    3.0010   -7.4810 N.am   50  ILE50      -0.1977
     77  CA         8.9710    2.9880   -6.9050 C.3    50  ILE50       0.1596
     78  C          9.0640    3.7290   -5.5820 C.2    50  ILE50       0.2287
     79  O          9.8570    3.3420   -4.7040 O.2    50  ILE50      -0.2864
     80  CB         9.9700    3.5300   -7.9530 C.3    50  ILE50       0.0276
     81  CG1        9.7980    2.8740   -9.3280 C.3    50  ILE50       0.0022
     82  CG2       11.3930    3.4100   -7.4430 C.3    50  ILE50       0.0022
     83  CD1       11.0260    2.8190  -10.2000 C.3    50  ILE50       0.0001
     84  N         -1.1480    7.8300  -13.1330 N.3    81  PRO81      -0.2102
     85  CA        -0.6490    8.8600  -14.0470 C.3    81  PRO81       0.1504
     86  C         -1.2030    8.7010  -15.4550 C.2    81  PRO81       0.2575
     87  O         -1.3080    9.6710  -16.2200 O.2    81  PRO81      -0.2718
     88  CB         0.8700    8.6470  -14.0050 C.3    81  PRO81       0.0282
     89  CG         1.0660    7.2540  -13.5060 C.3    81  PRO81       0.0208
     90  CD        -0.0950    6.9600  -12.6050 C.3    81  PRO81       0.0893
     91  N         -1.5870    7.4750  -15.8220 N.am   82  VAL82      -0.1980
     92  CA        -2.2670    7.2020  -17.0770 C.3    82  VAL82       0.1595
     93  C         -3.0380    5.8800  -16.9780 C.2    82  VAL82       0.2287
     94  O         -2.5860    5.0150  -16.2240 O.2    82  VAL82      -0.2864
     95  CB        -1.2910    7.1240  -18.2620 C.3    82  VAL82       0.0276
     96  CG1       -0.2920    5.9930  -18.1030 C.3    82  VAL82       0.0022
     97  CG2       -2.0270    6.9420  -19.5810 C.3    82  VAL82       0.0022
     98  N         -3.8290    2.3290  -17.5580 N.3    84  ILE84      -0.1245
     99  CA        -2.8590    1.2730  -17.8580 C.3    84  ILE84       0.1561
    100  C         -3.5530   -0.0810  -17.9680 C.2    84  ILE84       0.2260
    101  O         -4.2820   -0.4430  -17.0390 O.2    84  ILE84      -0.2867
    102  CB        -1.7630    1.2340  -16.7730 C.3    84  ILE84       0.0252
    103  CG1       -0.6960    2.3250  -16.9770 C.3    84  ILE84       0.0019
    104  CG2       -1.0510   -0.1010  -16.6370 C.3    84  ILE84       0.0019
    105  CD1        0.0030    2.6280  -15.6550 C.3    84  ILE84       0.0001
@<TRIPOS>BOND
     1     4     3    2
     2     1     2    1
     3     3     2    1
     4     2     5    1
     5     5     6    1
     6     6     7    1
     7     7     8    1
     8    18    17    1
     9     8     9    2
    10    13    14    1
    11    13    12    1
    12    13    16    1
    13    14    15    2
    14    10     9    1
    15    17    16    1
    16    17    19    1
    17     9    11    1
    18    20    21    1
    19    21    22    1
    20    21    24    1
    21    97    95    1
    22    22    23    2
    23    24    25    1
    24    95    96    1
    25    95    92    1
    26    26    25   ar
    27    25    27   ar
    28    28    29    1
    29   100    99    1
    30   100   101    2
    31    99    98    1
    32    99   102    1
    33    92    93    1
    34    92    91    1
    35    93    94    2
    36   103   102    1
    37   103   105    1
    38   102   104    1
    39    29    30    1
    40    87    86    2
    41    32    30   am
    42    32    33    1
    43    91    86   am
    44    30    31    2
    45    35    34    2
    46    86    85    1
    47    36    33    1
    48    56    55    2
    49    33    34    1
    50    34    37   am
    51    48    47    2
    52    55    54    1
    53    53    54    1
    54    85    88    1
    55    85    84    1
    56    88    89    1
    57    47    46    1
    58    40    39    2
    59    89    90    1
    60    54    57    1
    61    37    38    1
    62    39    38    1
    63    39    45   am
    64    84    90    1
    65    38    41    1
    66    45    46    1
    67    46    49    1
    68    57    59    1
    69    57    58    1
    70    43    42   ar
    71    41    42    1
    72    49    50    1
    73    42    44   ar
    74    52    50   ar
    75    50    51   ar
    76    83    81    1
    77    81    80    1
    78    67    65    1
    79    80    82    1
    80    80    77    1
    81    73    74    1
    82    73    72    1
    83    76    77    1
    84    76    74   am
    85    71    70    2
    86    65    64    1
    87    77    78    1
    88    74    75    2
    89    66    64    1
    90    72    70   am
    91    64    61    1
    92    70    69    1
    93    78    79    2
    94    68    69    1
    95    68    62   am
    96    61    62    1
    97    61    60    1
    98    62    63    2
