@<TRIPOS>MOLECULE
tmp/3ckvA00.pdb
 117 109 0 0 0
SMALL
GASTEIGER

@<TRIPOS>ATOM
      1  N          7.9530   26.7840   21.4250 N.3    41  PRO41      -0.2102
      2  CA         7.4660   27.6570   20.3690 C.3    41  PRO41       0.1504
      3  C          6.2600   26.9910   19.7040 C.2    41  PRO41       0.2576
      4  O          6.2780   25.7670   19.4750 O.2    41  PRO41      -0.2718
      5  CB         8.6530   27.7330   19.4070 C.3    41  PRO41       0.0282
      6  CG         9.3460   26.4230   19.5870 C.3    41  PRO41       0.0208
      7  CD         9.2190   26.1210   21.0460 C.3    41  PRO41       0.0893
      8  N          5.2020   27.7680   19.4580 N.am   42  ALA42      -0.1966
      9  CA         3.9610   27.2050   18.9060 C.3    42  ALA42       0.1728
     10  C          3.2810   28.1230   17.9010 C.2    42  ALA42       0.2616
     11  O          2.9710   29.2650   18.2120 O.2    42  ALA42      -0.2715
     12  CB         2.9860   26.8130   20.0250 C.3    42  ALA42       0.0334
     13  N          3.0880   27.6140   16.6890 N.am   43  LEU43      -0.1977
     14  CA         2.1920   28.2210   15.7180 C.3    43  LEU43       0.1596
     15  C          1.1400   27.1820   15.3090 C.2    43  LEU43       0.2287
     16  O          1.4580   26.2460   14.5930 O.2    43  LEU43      -0.2864
     17  CB         2.9680   28.6970   14.4840 C.3    43  LEU43       0.0297
     18  CG         2.1420   29.3500   13.3640 C.3    43  LEU43       0.0022
     19  CD1        1.1830   30.4280   13.8960 C.3    43  LEU43       0.0001
     20  CD2        3.0280   29.9210   12.2720 C.3    43  LEU43       0.0001
     21  N         -0.8220   24.6800   16.9290 N.3    45  GLU45      -0.1245
     22  CA        -0.4760   23.3140   17.3270 C.3    45  GLU45       0.1567
     23  C         -1.4430   22.7850   18.3870 C.2    45  GLU45       0.2260
     24  O         -1.0350   22.1040   19.3330 O.2    45  GLU45      -0.2867
     25  CB         0.9840   23.2480   17.8170 C.3    45  GLU45       0.0388
     26  CG         2.0410   23.8160   16.8400 C.3    45  GLU45       0.1160
     27  CD         2.3130   22.9290   15.6130 C.2    45  GLU45       0.3649
     28  OE1        1.5830   21.9330   15.4000 O.co2  45  GLU45      -0.2457
     29  OE2        3.2690   23.2280   14.8540 O.co2  45  GLU45      -0.2457
     30  N          3.1400   32.0660   18.5290 N.3    72  SER72      -0.1217
     31  CA         3.6770   32.8350   17.4020 C.3    72  SER72       0.1889
     32  C          2.5890   33.2140   16.3960 C.2    72  SER72       0.2288
     33  O          2.7890   33.1160   15.1740 O.2    72  SER72      -0.2866
     34  CB         4.8090   32.0670   16.7030 C.3    72  SER72       0.2089
     35  OG         5.6960   31.4510   17.6290 O.3    72  SER72      -0.2183
     36  N          4.1770   36.8010   20.9720 N.3    92  ARG92      -0.1245
     37  CA         5.3780   37.5000   20.5180 C.3    92  ARG92       0.1563
     38  C          5.3730   38.9540   20.9840 C.2    92  ARG92       0.2260
     39  O          6.4020   39.4530   21.4580 O.2    92  ARG92      -0.2867
     40  CB         5.5020   37.4080   18.9980 C.3    92  ARG92       0.0307
     41  CG         5.8650   36.0210   18.4940 C.3    92  ARG92       0.0489
     42  CD         5.6700   35.9650   16.9900 C.3    92  ARG92       0.2205
     43  NE         4.3140   36.3660   16.5880 N.pl3  92  ARG92      -0.0865
     44  CZ         3.8750   36.4070   15.3300 C.cat  92  ARG92       0.5346
     45  NH1        4.6810   36.0830   14.3190 N.pl3  92  ARG92       0.1354
     46  NH2        2.6290   36.7890   15.0890 N.pl3  92  ARG92       0.1354
     47  N          8.3230   34.1450   11.4460 N.3   104  GLY104     -0.1210
     48  CA         9.2210   32.9860   11.4790 C.3   104  GLY104      0.1956
     49  C          9.5020   32.5010   12.8730 C.2   104  GLY104      0.2611
     50  O          9.2910   33.2460   13.8550 O.2   104  GLY104     -0.2717
     51  N          9.9680   31.2600   12.9500 N.am  105  LYS105     -0.1979
     52  CA        10.3130   30.5780   14.1910 C.3   105  LYS105      0.1596
     53  C         11.4580   31.2700   14.9520 C.2   105  LYS105      0.2287
     54  O         11.3970   31.3620   16.1780 O.2   105  LYS105     -0.2864
     55  CB        10.7160   29.1220   13.8880 C.3   105  LYS105      0.0298
     56  CG        10.7780   28.2270   15.1060 C.3   105  LYS105      0.0038
     57  CD        11.2440   26.8250   14.7140 C.3   105  LYS105      0.0206
     58  CE        11.3780   25.9300   15.9380 C.3   105  LYS105      0.1093
     59  NZ        11.9060   24.5830   15.4980 N.3   105  LYS105     -0.1314
     60  N         10.4080   33.9700   17.2150 N.3   108  ALA108     -0.1245
     61  CA         9.7070   33.5140   18.4110 C.3   108  ALA108      0.1562
     62  C         10.6850   33.0920   19.5000 C.2   108  ALA108      0.2260
     63  O         10.5210   33.4870   20.6490 O.2   108  ALA108     -0.2867
     64  CB         8.7250   32.3930   18.0730 C.3   108  ALA108      0.0290
     65  N         10.0960   21.4800   20.6040 N.3   125  ASP125     -0.1225
     66  CA         9.0240   21.7760   19.6400 C.3   125  ASP125      0.1805
     67  C          7.6760   21.3050   20.1760 C.2   125  ASP125      0.2598
     68  O          7.6030   20.3120   20.8880 O.2   125  ASP125     -0.2718
     69  CB         9.3060   21.1730   18.2750 C.3   125  ASP125      0.1424
     70  CG        10.3190   21.9500   17.4970 C.2   125  ASP125      0.3668
     71  OD1       10.5620   23.1630   17.7830 O.co2 125  ASP125     -0.2456
     72  OD2       10.8800   21.3440   16.5650 O.co2 125  ASP125     -0.2456
     73  N          6.6230   22.0570   19.8690 N.am  126  SER126     -0.1938
     74  CA         5.2830   21.7630   20.3720 C.3   126  SER126      0.2055
     75  C          4.5110   20.8000   19.4570 C.2   126  SER126      0.2643
     76  O          3.3740   20.4320   19.7570 O.2   126  SER126     -0.2714
     77  CB         4.5050   23.0690   20.6030 C.3   126  SER126      0.2130
     78  OG         4.4470   23.8450   19.4190 O.3   126  SER126     -0.2179
     79  N          5.1340   20.3860   18.3520 N.am  127  ASP127     -0.1971
     80  CA         4.5050   19.4460   17.4370 C.3   127  ASP127      0.1709
     81  C          4.9620   17.9980   17.6430 C.2   127  ASP127      0.2293
     82  O          4.6370   17.1230   16.8340 O.2   127  ASP127     -0.2864
     83  CB         4.6170   19.8980   15.9660 C.3   127  ASP127      0.1436
     84  CG         6.0470   19.9110   15.4310 C.2   127  ASP127      0.3671
     85  OD1        7.0090   19.5640   16.1550 O.co2 127  ASP127     -0.2456
     86  OD2        6.2110   20.2790   14.2440 O.co2 127  ASP127     -0.2456
     87  N         13.3410   29.3040    9.6080 N.3   205  TYR205     -0.1241
     88  CA        13.8850   27.9480    9.7580 C.3   205  TYR205      0.1605
     89  C         15.4070   27.9030    9.9310 C.2   205  TYR205      0.2264
     90  O         15.9730   26.8230   10.0280 O.2   205  TYR205     -0.2867
     91  CB        13.5160   27.0600    8.5380 C.3   205  TYR205      0.0534
     92  CG        12.0330   26.9500    8.2310 C.ar  205  TYR205     -0.0201
     93  CD1       11.5350   27.3300    6.9760 C.ar  205  TYR205     -0.0009
     94  CD2       11.1360   26.5080    9.1860 C.ar  205  TYR205     -0.0009
     95  CE1       10.1650   27.2460    6.6700 C.ar  205  TYR205      0.0417
     96  CE2        9.7630   26.4220    8.9030 C.ar  205  TYR205      0.0417
     97  CZ         9.2910   26.7890    7.6410 C.ar  205  TYR205      0.1957
     98  OH         7.9470   26.7090    7.3640 O.3   205  TYR205     -0.2866
     99  N          6.3400   16.4520    7.9450 N.3   237  ARG237     -0.1245
    100  CA         6.6470   17.7500    7.3450 C.3   237  ARG237      0.1563
    101  C          6.0860   17.7920    5.9120 C.2   237  ARG237      0.2260
    102  O          6.5820   17.0630    5.0440 O.2   237  ARG237     -0.2867
    103  CB         8.1610   18.0020    7.3520 C.3   237  ARG237      0.0307
    104  CG         8.5590   19.4110    7.7810 C.3   237  ARG237      0.0489
    105  CD         7.9310   20.4600    6.8600 C.3   237  ARG237      0.2205
    106  NE         7.4180   21.6050    7.6020 N.pl3 237  ARG237     -0.0865
    107  CZ         7.7910   22.8680    7.4020 C.cat 237  ARG237      0.5346
    108  NH1        8.6820   23.1730    6.4600 N.pl3 237  ARG237      0.1354
    109  NH2        7.2510   23.8410    8.1350 N.pl3 237  ARG237      0.1354
    110  N         12.4550   25.7790    3.2780 N.3   245  MET245     -0.1245
    111  CA        13.2220   25.4700    4.4620 C.3   245  MET245      0.1570
    112  C         14.7180   25.3170    4.1150 C.2   245  MET245      0.2261
    113  O         15.5690   25.8760    4.7900 O.2   245  MET245     -0.2867
    114  CB        12.6730   24.2180    5.1630 C.3   245  MET245      0.0387
    115  CG        13.3930   23.9100    6.4820 C.3   245  MET245      0.0595
    116  SD        13.0530   22.2570    7.1300 S.3   245  MET245     -0.1393
    117  CE        11.2670   22.2880    7.0790 C.3   245  MET245      0.0692
@<TRIPOS>BOND
     1   110   111    1
     2   112   111    1
     3   112   113    2
     4   111   114    1
     5   102   101    2
     6   114   115    1
     7   101   100    1
     8   108   107    1
     9   115   116    1
    10    95    93   ar
    11    95    97   ar
    12   105   106    1
    13   105   104    1
    14    93    92   ar
    15   117   116    1
    16   100   103    1
    17   100    99    1
    18   103   104    1
    19    98    97    1
    20   107   106    2
    21   107   109    1
    22    97    96   ar
    23    92    91    1
    24    92    94   ar
    25    91    88    1
    26    96    94   ar
    27    87    88    1
    28    88    89    1
    29    89    90    2
    30    47    48    1
    31    48    49    1
    32    20    18    1
    33    49    51   am
    34    49    50    2
    35    51    52    1
    36    18    19    1
    37    18    17    1
    38    55    52    1
    39    55    56    1
    40    52    53    1
    41    86    84   ar
    42    45    44    1
    43    17    14    1
    44    16    15    2
    45    57    56    1
    46    57    58    1
    47    29    27   ar
    48    53    54    2
    49    46    44    1
    50    33    32    2
    51    15    14    1
    52    44    43    2
    53    28    27   ar
    54    84    83    1
    55    84    85   ar
    56    59    58    1
    57    27    26    1
    58    14    13    1
    59    83    80    1
    60    32    31    1
    61    72    70   ar
    62    43    42    1
    63    13    10   am
    64    34    31    1
    65    34    35    1
    66    82    81    2
    67    26    25    1
    68    21    22    1
    69    42    41    1
    70    60    61    1
    71    22    25    1
    72    22    23    1
    73    31    30    1
    74    80    81    1
    75    80    79    1
    76    70    71   ar
    77    70    69    1
    78    10    11    2
    79    10     9    1
    80    64    61    1
    81    69    66    1
    82    79    75   am
    83    23    24    2
    84    61    62    1
    85    41    40    1
    86     9     8    1
    87     9    12    1
    88    40    37    1
    89     5     6    1
    90     5     2    1
    91    78    77    1
    92    75    76    2
    93    75    74    1
    94     8     3   am
    95     4     3    2
    96    62    63    2
    97     6     7    1
    98    66    67    1
    99    66    65    1
   100     3     2    1
   101    73    67   am
   102    73    74    1
   103    67    68    2
   104     2     1    1
   105    74    77    1
   106    37    36    1
   107    37    38    1
   108    38    39    2
   109     7     1    1
