@<TRIPOS>MOLECULE
tmp/3cl4A02.pdb
 95 89 0 0 0
SMALL
GASTEIGER

@<TRIPOS>ATOM
      1  N         -6.0480   33.5050   15.3250 N.3   272  ASP272     -0.1239
      2  CA        -5.7350   32.1160   15.6710 C.3   272  ASP272      0.1674
      3  C         -5.7930   31.1930   14.4330 C.2   272  ASP272      0.2266
      4  O         -6.7750   31.1860   13.6730 O.2   272  ASP272     -0.2867
      5  CB        -6.6770   31.6100   16.7820 C.3   272  ASP272      0.1410
      6  CG        -6.2730   30.2760   17.3400 C.2   272  ASP272      0.3668
      7  OD1       -5.0550   29.9950   17.3760 O.co2 272  ASP272     -0.2456
      8  OD2       -7.1750   29.5020   17.7900 O.co2 272  ASP272     -0.2456
      9  N         -5.6690   27.4540   13.5250 N.3   274  ARG274     -0.1245
     10  CA        -5.8390   26.0950   14.0290 C.3   274  ARG274      0.1563
     11  C         -6.6590   25.2120   13.0940 C.2   274  ARG274      0.2260
     12  O         -7.4140   25.6810   12.2340 O.2   274  ARG274     -0.2867
     13  CB        -6.5110   26.1130   15.4230 C.3   274  ARG274      0.0307
     14  CG        -7.8270   26.8520   15.4930 C.3   274  ARG274      0.0489
     15  CD        -8.4460   26.8070   16.8990 C.3   274  ARG274      0.2205
     16  NE        -9.3880   27.8960   17.1140 N.pl3 274  ARG274     -0.0865
     17  CZ       -10.7250   27.7970   17.0130 C.cat 274  ARG274      0.5346
     18  NH1      -11.2840   26.6470   16.6390 N.pl3 274  ARG274      0.1354
     19  NH2      -11.5040   28.8630   17.2220 N.pl3 274  ARG274      0.1354
     20  N        -10.9830   20.4150   15.4480 N.3   277  ASN277     -0.1240
     21  CA       -10.5340   19.8370   16.7320 C.3   277  ASN277      0.1653
     22  C        -10.0240   18.4100   16.6270 C.2   277  ASN277      0.2266
     23  O         -9.4150   17.8970   17.5580 O.2   277  ASN277     -0.2867
     24  CB       -11.6380   19.8930   17.7790 C.3   277  ASN277      0.1155
     25  CG       -11.8280   21.2790   18.3740 C.2   277  ASN277      0.2627
     26  OD1      -12.8120   21.5120   19.0820 O.2   277  ASN277     -0.2716
     27  ND2      -10.8970   22.2080   18.0930 N.am  277  ASN277     -0.0877
     28  N         -1.9870   24.1890   18.4820 N.3   282  ASP282     -0.1225
     29  CA        -1.2410   24.7730   19.6030 C.3   282  ASP282      0.1805
     30  C         -1.6070   26.2280   19.8330 C.2   282  ASP282      0.2597
     31  O         -2.2700   26.8680   19.0020 O.2   282  ASP282     -0.2718
     32  CB         0.2680   24.6490   19.3850 C.3   282  ASP282      0.1424
     33  CG         0.7670   25.5200   18.2320 C.2   282  ASP282      0.3668
     34  OD1        1.1090   24.9330   17.1720 O.co2 282  ASP282     -0.2456
     35  OD2        0.7750   26.7720   18.3740 O.co2 282  ASP282     -0.2456
     36  N         -1.1820   26.7560   20.9680 N.am  283  ASN283     -0.1974
     37  CA        -1.5220   28.1490   21.3130 C.3   283  ASN283      0.1688
     38  C         -0.2920   29.0790   21.2880 C.2   283  ASN283      0.2292
     39  O         -0.2860   30.1690   21.8470 O.2   283  ASN283     -0.2864
     40  CB        -2.2920   28.2340   22.6380 C.3   283  ASN283      0.1181
     41  CG        -1.4340   27.9510   23.8150 C.2   283  ASN283      0.2629
     42  OD1       -0.3120   27.4810   23.6560 O.2   283  ASN283     -0.2716
     43  ND2       -1.9470   28.2250   25.0120 N.am  283  ASN283     -0.0877
     44  N         -0.8140   32.5710   20.2000 N.3   286  ALA286     -0.1245
     45  CA        -1.5250   33.2790   21.2730 C.3   286  ALA286      0.1562
     46  C         -0.5050   33.7480   22.2900 C.2   286  ALA286      0.2260
     47  O         -0.5200   34.8860   22.6960 O.2   286  ALA286     -0.2867
     48  CB        -2.5940   32.3790   21.9550 C.3   286  ALA286      0.0290
     49  N         -4.8640   39.7920   19.6270 N.3   296  PHE296     -0.1241
     50  CA        -5.2210   38.4330   19.2610 C.3   296  PHE296      0.1605
     51  C         -6.7450   38.2310   19.0590 C.2   296  PHE296      0.2264
     52  O         -7.5610   38.6160   19.9030 O.2   296  PHE296     -0.2867
     53  CB        -4.7180   37.4470   20.3170 C.3   296  PHE296      0.0534
     54  CG        -4.7660   35.9820   19.8810 C.ar  296  PHE296     -0.0203
     55  CD1       -3.8400   35.4820   18.9740 C.ar  296  PHE296     -0.0042
     56  CD2       -5.7210   35.1210   20.3960 C.ar  296  PHE296     -0.0042
     57  CE1       -3.8690   34.1580   18.5790 C.ar  296  PHE296     -0.0003
     58  CE2       -5.7440   33.7700   20.0260 C.ar  296  PHE296     -0.0003
     59  CZ        -4.8200   33.2990   19.1180 C.ar  296  PHE296     -0.0000
     60  N         -9.7520   35.3070   17.9720 N.3   298  ASN298     -0.1225
     61  CA       -10.1380   33.9030   17.8890 C.3   298  ASN298      0.1785
     62  C        -11.6590   33.7280   17.8380 C.2   298  ASN298      0.2598
     63  O        -12.3800   34.5180   18.4200 O.2   298  ASN298     -0.2718
     64  CB        -9.6100   33.1930   19.1290 C.3   298  ASN298      0.1169
     65  CG        -9.7300   31.7160   19.0430 C.2   298  ASN298      0.2627
     66  OD1       -9.9320   31.1540   17.9570 O.2   298  ASN298     -0.2716
     67  ND2       -9.5760   31.0380   20.2100 N.am  298  ASN298     -0.0877
     68  N        -12.1280   32.6830   17.1610 N.am  299  SER299     -0.1938
     69  CA       -13.5810   32.3900   17.1780 C.3   299  SER299      0.2055
     70  C        -13.8750   31.6080   18.4330 C.2   299  SER299      0.2644
     71  O        -12.9660   31.0720   19.0920 O.2   299  SER299     -0.2714
     72  CB       -14.0730   31.6080   15.9600 C.3   299  SER299      0.2130
     73  OG       -13.9060   30.2260   16.1660 O.3   299  SER299     -0.2179
     74  N        -15.1640   31.5360   18.7420 N.am  300  THR300     -0.1936
     75  CA       -15.6200   30.9080   19.9670 C.3   300  THR300      0.2028
     76  C        -16.0170   29.4840   19.6880 C.2   300  THR300      0.2643
     77  O        -16.4130   28.7740   20.5690 O.2   300  THR300     -0.2714
     78  CB       -16.8100   31.6440   20.5890 C.3   300  THR300      0.1808
     79  OG1      -17.8550   31.7590   19.6130 O.3   300  THR300     -0.2208
     80  CG2      -16.3980   33.0120   21.0820 C.3   300  THR300      0.0379
     81  N        -15.8250   29.0540   18.4560 N.am  301  THR301     -0.1936
     82  CA       -16.2280   27.7220   18.0440 C.3   301  THR301      0.2028
     83  C        -15.1060   26.8670   17.4880 C.2   301  THR301      0.2642
     84  O        -14.0290   27.3490   17.0920 O.2   301  THR301     -0.2714
     85  CB       -17.3920   27.7860   16.9980 C.3   301  THR301      0.1808
     86  OG1      -17.0650   28.7030   15.9410 O.3   301  THR301     -0.2208
     87  CG2      -18.6930   28.2600   17.6600 C.3   301  THR301      0.0379
     88  N        -15.3720   25.5700   17.4900 N.am  302  ASN302     -0.1971
     89  CA       -14.6160   24.6240   16.6740 C.3   302  ASN302      0.1688
     90  C        -14.5180   25.1090   15.2180 C.2   302  ASN302      0.2292
     91  O        -15.4050   25.7730   14.6920 O.2   302  ASN302     -0.2864
     92  CB       -15.2930   23.2370   16.7190 C.3   302  ASN302      0.1181
     93  CG       -14.4630   22.1320   16.1010 C.2   302  ASN302      0.2629
     94  OD1      -13.2260   22.2290   15.9460 O.2   302  ASN302     -0.2716
     95  ND2      -15.1520   21.0200   15.7710 N.am  302  ASN302     -0.0877
@<TRIPOS>BOND
     1    12    11    2
     2    11    10    1
     3     9    10    1
     4     4     3    2
     5    10    13    1
     6     3     2    1
     7    91    90    2
     8    90    89    1
     9     1     2    1
    10    13    14    1
    11    20    21    1
    12    14    15    1
    13     2     5    1
    14    95    93   am
    15    86    85    1
    16    94    93    2
    17    72    73    1
    18    72    69    1
    19    93    92    1
    20    22    21    1
    21    22    23    2
    22    18    17    1
    23    89    92    1
    24    89    88    1
    25    21    24    1
    26     5     6    1
    27    15    16    1
    28    85    87    1
    29    85    82    1
    30    17    16    2
    31    17    19    1
    32    84    83    2
    33    68    69    1
    34    68    62   am
    35    34    33   ar
    36    69    70    1
    37     6     7   ar
    38     6     8   ar
    39    83    88   am
    40    83    82    1
    41    24    25    1
    42    62    61    1
    43    62    63    2
    44    61    60    1
    45    61    64    1
    46    66    65    2
    47    82    81    1
    48    27    25   am
    49    33    35   ar
    50    33    32    1
    51    25    26    2
    52    70    74   am
    53    70    71    2
    54    81    76   am
    55    28    29    1
    56    57    55   ar
    57    57    59   ar
    58    74    75    1
    59    55    54   ar
    60    31    30    2
    61    65    64    1
    62    65    67   am
    63    51    50    1
    64    51    52    2
    65    59    58   ar
    66    50    49    1
    67    50    53    1
    68    32    29    1
    69    29    30    1
    70    79    78    1
    71    76    75    1
    72    76    77    2
    73    30    36   am
    74    54    53    1
    75    54    56   ar
    76    75    78    1
    77    58    56   ar
    78    44    45    1
    79    78    80    1
    80    36    37    1
    81    45    48    1
    82    45    46    1
    83    38    37    1
    84    38    39    2
    85    37    40    1
    86    46    47    2
    87    40    41    1
    88    42    41    2
    89    41    43   am
