@<TRIPOS>MOLECULE
tmp/3cl5A04.pdb
 107 102 0 0 0
SMALL
GASTEIGER

@<TRIPOS>ATOM
      1  N         13.4480   14.7030   15.7930 N.3    96  THR96      -0.1218
      2  CA        13.6710   13.2440   15.7780 C.3    96  THR96       0.1862
      3  C         12.5130   12.5550   16.4730 C.2    96  THR96       0.2287
      4  O         11.6890   13.1990   17.1360 O.2    96  THR96      -0.2866
      5  CB        14.9370   12.8310   16.5190 C.3    96  THR96       0.1770
      6  OG1       14.7830   13.1140   17.9180 O.3    96  THR96      -0.2211
      7  CG2       16.1460   13.5940   15.9840 C.3    96  THR96       0.0375
      8  N         12.3120   10.8720   18.9730 N.3    98  SER98      -0.1217
      9  CA        12.3110   10.9630   20.4400 C.3    98  SER98       0.1889
     10  C         12.3690   12.4080   20.9040 C.2    98  SER98       0.2288
     11  O         12.7580   12.7080   22.0340 O.2    98  SER98      -0.2866
     12  CB        13.4630   10.1660   21.0470 C.3    98  SER98       0.2089
     13  OG        14.7020   10.8070   20.8110 O.3    98  SER98      -0.2183
     14  N         19.0800   17.3500    9.2900 N.3   143  LEU143     -0.1245
     15  CA        19.0890   16.5930   10.5410 C.3   143  LEU143      0.1561
     16  C         17.7140   16.6310   11.2060 C.2   143  LEU143      0.2260
     17  O         17.3100   15.6900   11.8750 O.2   143  LEU143     -0.2867
     18  CB        20.1520   17.1370   11.4900 C.3   143  LEU143      0.0270
     19  CG        20.4030   16.3560   12.7700 C.3   143  LEU143      0.0019
     20  CD1       21.0030   14.9720   12.4380 C.3   143  LEU143      0.0001
     21  CD2       21.3350   17.1490   13.6790 C.3   143  LEU143      0.0001
     22  N         32.4750   15.4940   17.7660 N.3   166  TYR166     -0.1241
     23  CA        31.7010   16.7490   17.5730 C.3   166  TYR166      0.1605
     24  C         32.1280   17.8530   18.5310 C.2   166  TYR166      0.2264
     25  O         31.3690   18.7790   18.8270 O.2   166  TYR166     -0.2867
     26  CB        30.1960   16.4820   17.6640 C.3   166  TYR166      0.0534
     27  CG        29.6780   15.8280   16.4020 C.ar  166  TYR166     -0.0201
     28  CD1       29.5660   16.5550   15.2240 C.ar  166  TYR166     -0.0009
     29  CD2       29.3650   14.4730   16.3670 C.ar  166  TYR166     -0.0009
     30  CE1       29.1300   15.9730   14.0640 C.ar  166  TYR166      0.0417
     31  CE2       28.9220   13.8760   15.2040 C.ar  166  TYR166      0.0417
     32  CZ        28.8020   14.6390   14.0530 C.ar  166  TYR166      0.1957
     33  OH        28.3650   14.0620   12.8780 O.3   166  TYR166     -0.2866
     34  N         22.9610   15.0850   23.7980 N.3   193  PHE193     -0.1227
     35  CA        22.8210   14.5760   22.4150 C.3   193  PHE193      0.1736
     36  C         23.8140   13.4600   22.1480 C.2   193  PHE193      0.2595
     37  O         25.0270   13.6840   22.1030 O.2   193  PHE193     -0.2718
     38  CB        23.0480   15.7030   21.3950 C.3   193  PHE193      0.0547
     39  CG        22.6370   15.3600   19.9800 C.ar  193  PHE193     -0.0202
     40  CD1       21.5140   15.9460   19.4170 C.ar  193  PHE193     -0.0042
     41  CD2       23.3870   14.4860   19.2080 C.ar  193  PHE193     -0.0042
     42  CE1       21.1360   15.6650   18.1140 C.ar  193  PHE193     -0.0003
     43  CE2       23.0120   14.1860   17.9060 C.ar  193  PHE193     -0.0003
     44  CZ        21.8760   14.7770   17.3620 C.ar  193  PHE193     -0.0000
     45  N         23.2780   12.2600   21.9730 N.am  194  LEU194     -0.1966
     46  CA        24.1080   11.0550   21.7670 C.3   194  LEU194      0.1728
     47  C         24.5780   10.9500   20.3220 C.2   194  LEU194      0.2617
     48  O         23.7710   10.9730   19.3730 O.2   194  LEU194     -0.2715
     49  CB        23.3450    9.7860   22.1480 C.3   194  LEU194      0.0311
     50  CG        24.1640    8.4780   21.9730 C.3   194  LEU194      0.0022
     51  CD1       25.4150    8.5000   22.8120 C.3   194  LEU194      0.0001
     52  CD2       23.3240    7.2430   22.3050 C.3   194  LEU194      0.0001
     53  N         25.8930   10.8900   20.1720 N.am  195  SER195     -0.1936
     54  CA        26.5060   10.5170   18.9040 C.3   195  SER195      0.2055
     55  C         27.7490    9.6510   19.0770 C.2   195  SER195      0.2643
     56  O         28.7330   10.0270   19.7430 O.2   195  SER195     -0.2714
     57  CB        26.8540   11.7300   18.0590 C.3   195  SER195      0.2130
     58  OG        27.0550   11.3260   16.7230 O.3   195  SER195     -0.2179
     59  N         27.6840    8.4980   18.4260 N.am  196  ASN196     -0.1957
     60  CA        28.7450    7.4940   18.4920 C.3   196  ASN196      0.1819
     61  C         29.3310    7.3770   19.8820 C.2   196  ASN196      0.2621
     62  O         30.5150    7.6090   20.0860 O.2   196  ASN196     -0.2715
     63  CB        29.8690    7.7870   17.5050 C.3   196  ASN196      0.1195
     64  CG        30.8840    6.6350   17.4320 C.2   196  ASN196      0.2630
     65  OD1       32.0830    6.8410   17.2060 O.2   196  ASN196     -0.2716
     66  ND2       30.3950    5.4120   17.6370 N.am  196  ASN196     -0.0877
     67  N         28.4620    7.0330   20.8210 N.am  197  THR197     -0.1951
     68  CA        28.8280    6.6830   22.2000 C.3   197  THR197      0.1897
     69  C         29.1120    7.8720   23.1030 C.2   197  THR197      0.2313
     70  O         29.2630    7.7230   24.3100 O.2   197  THR197     -0.2863
     71  CB        30.0190    5.6590   22.2670 C.3   197  THR197      0.1794
     72  OG1       31.2810    6.3460   22.2470 O.3   197  THR197     -0.2208
     73  CG2       29.9530    4.6790   21.1070 C.3   197  THR197      0.0378
     74  N         18.4060   12.9730   28.3420 N.3   224  THR224     -0.1218
     75  CA        19.0300   12.2850   27.2070 C.3   224  THR224      0.1862
     76  C         18.0070   11.8880   26.1640 C.2   224  THR224      0.2287
     77  O         18.3340   11.3170   25.1120 O.2   224  THR224     -0.2866
     78  CB        19.7570   11.0190   27.6610 C.3   224  THR224      0.1770
     79  OG1       18.8240   10.1530   28.3200 O.3   224  THR224     -0.2211
     80  CG2       20.8770   11.3730   28.5930 C.3   224  THR224      0.0375
     81  N         14.1130   15.6470   24.3410 N.3   227  PHE227     -0.1241
     82  CA        14.5690   17.0170   24.0370 C.3   227  PHE227      0.1605
     83  C         14.5080   17.3120   22.5460 C.2   227  PHE227      0.2264
     84  O         14.3560   16.4280   21.7080 O.2   227  PHE227     -0.2867
     85  CB        15.9940   17.2800   24.5520 C.3   227  PHE227      0.0534
     86  CG        17.0520   16.4920   23.8490 C.ar  227  PHE227     -0.0203
     87  CD1       17.5590   16.9140   22.6330 C.ar  227  PHE227     -0.0042
     88  CD2       17.5570   15.3380   24.4130 C.ar  227  PHE227     -0.0042
     89  CE1       18.5390   16.1870   21.9800 C.ar  227  PHE227     -0.0003
     90  CE2       18.5410   14.5980   23.7690 C.ar  227  PHE227     -0.0003
     91  CZ        19.0350   15.0110   22.5550 C.ar  227  PHE227     -0.0000
     92  N         28.8460   20.2050   18.5000 N.3   248  LEU248     -0.1231
     93  CA        27.8490   19.6050   17.6220 C.3   248  LEU248      0.1693
     94  C         27.9120   20.1950   16.2110 C.2   248  LEU248      0.2591
     95  O         28.9650   20.5560   15.7100 O.2   248  LEU248     -0.2718
     96  CB        26.4460   19.7120   18.2320 C.3   248  LEU248      0.0284
     97  CG        25.5070   18.5350   17.9610 C.3   248  LEU248      0.0019
     98  CD1       26.2400   17.2120   18.2590 C.3   248  LEU248      0.0001
     99  CD2       24.1770   18.6280   18.7520 C.3   248  LEU248      0.0001
    100  N         26.7780   20.2600   15.5450 N.am  249  LEU249     -0.1980
    101  CA        26.7490   20.7560   14.1560 C.3   249  LEU249      0.1596
    102  C         26.6220   22.2830   14.0920 C.2   249  LEU249      0.2287
    103  O         25.8540   22.8840   14.8170 O.2   249  LEU249     -0.2864
    104  CB        25.5870   20.1340   13.3630 C.3   249  LEU249      0.0297
    105  CG        25.8600   18.8230   12.6130 C.3   249  LEU249      0.0022
    106  CD1       26.6590   17.8750   13.4270 C.3   249  LEU249      0.0001
    107  CD2       24.5500   18.1780   12.0930 C.3   249  LEU249      0.0001
@<TRIPOS>BOND
     1    14    15    1
     2    15    16    1
     3    15    18    1
     4    16    17    2
     5    18    19    1
     6   107   105    1
     7    20    19    1
     8   105   104    1
     9   105   106    1
    10    19    21    1
    11    33    32    1
    12   104   101    1
    13    32    30   ar
    14    32    31   ar
    15    30    28   ar
    16   102   101    1
    17   102   103    2
    18   101   100    1
    19    31    29   ar
    20    28    27   ar
    21   100    94   am
    22    95    94    2
    23     2     1    1
    24     2     3    1
    25     2     5    1
    26     7     5    1
    27    94    93    1
    28    29    27   ar
    29    27    26    1
    30     3     4    2
    31     5     6    1
    32    58    57    1
    33    65    64    2
    34    44    43   ar
    35    44    42   ar
    36    64    63    1
    37    64    66   am
    38    63    60    1
    39    23    26    1
    40    23    22    1
    41    23    24    1
    42    93    96    1
    43    93    92    1
    44    43    41   ar
    45    97    96    1
    46    97    98    1
    47    97    99    1
    48    57    54    1
    49    42    40   ar
    50    59    60    1
    51    59    55   am
    52    60    61    1
    53    24    25    2
    54    54    55    1
    55    54    53    1
    56     8     9    1
    57    55    56    2
    58    41    39   ar
    59    48    47    2
    60    40    39   ar
    61    61    62    2
    62    61    67   am
    63    39    38    1
    64    53    47   am
    65    47    46    1
    66     9    10    1
    67     9    12    1
    68    13    12    1
    69    67    68    1
    70    10    11    2
    71    73    71    1
    72    38    35    1
    73    84    83    2
    74    46    45    1
    75    46    49    1
    76    45    36   am
    77    50    49    1
    78    50    52    1
    79    50    51    1
    80    89    91   ar
    81    89    87   ar
    82    37    36    2
    83    36    35    1
    84    68    71    1
    85    68    69    1
    86    72    71    1
    87    35    34    1
    88    83    82    1
    89    91    90   ar
    90    87    86   ar
    91    69    70    2
    92    90    88   ar
    93    86    88   ar
    94    86    85    1
    95    82    81    1
    96    82    85    1
    97    77    76    2
    98    76    75    1
    99    75    78    1
   100    75    74    1
   101    78    79    1
   102    78    80    1
