@<TRIPOS>MOLECULE
tmp/3cl7B00.pdb
 144 141 0 0 0
SMALL
GASTEIGER

@<TRIPOS>ATOM
      1  N         41.2110   26.6650    4.9020 N.3    32  ASN32      -0.1240
      2  CA        40.9230   26.5290    6.3170 C.3    32  ASN32       0.1653
      3  C         39.4220   26.5840    6.5720 C.2    32  ASN32       0.2266
      4  O         38.6940   27.3350    5.9140 O.2    32  ASN32      -0.2867
      5  CB        41.5810   27.6530    7.1080 C.3    32  ASN32       0.1155
      6  CG        43.0780   27.5810    7.0760 C.2    32  ASN32       0.2627
      7  OD1       43.6870   27.0080    7.9740 O.2    32  ASN32      -0.2716
      8  ND2       43.6830   28.1660    6.0500 N.am   32  ASN32      -0.0877
      9  N         37.4920   27.2130    9.8860 N.3    34  GLU34      -0.1245
     10  CA        37.6120   27.5810   11.2940 C.3    34  GLU34       0.1567
     11  C         36.3270   28.1430   11.8820 C.2    34  GLU34       0.2260
     12  O         36.1740   28.2010   13.1240 O.2    34  GLU34      -0.2867
     13  CB        38.7220   28.6280   11.4740 C.3    34  GLU34       0.0388
     14  CG        40.1050   28.1090   11.0380 C.3    34  GLU34       0.1160
     15  CD        41.0530   29.1710   10.4950 C.2    34  GLU34       0.3649
     16  OE1       40.6630   30.3470   10.2690 O.co2  34  GLU34      -0.2457
     17  OE2       42.2210   28.8100   10.2860 O.co2  34  GLU34      -0.2457
     18  N         41.0940   38.0510   15.7290 N.3    51  PHE51      -0.1227
     19  CA        42.1220   37.7140   14.7610 C.3    51  PHE51       0.1736
     20  C         41.4440   37.3640   13.4230 C.2    51  PHE51       0.2595
     21  O         40.4000   36.7070   13.3950 O.2    51  PHE51      -0.2718
     22  CB        42.9920   36.5700   15.3660 C.3    51  PHE51       0.0547
     23  CG        44.1690   36.1040   14.5160 C.ar   51  PHE51      -0.0202
     24  CD1       45.0770   36.9960   13.9520 C.ar   51  PHE51      -0.0042
     25  CD2       44.4170   34.7410   14.3740 C.ar   51  PHE51      -0.0042
     26  CE1       46.1690   36.5440   13.2180 C.ar   51  PHE51      -0.0003
     27  CE2       45.5070   34.2700   13.6340 C.ar   51  PHE51      -0.0003
     28  CZ        46.3820   35.1690   13.0500 C.ar   51  PHE51      -0.0000
     29  N         42.0040   37.8680   12.3270 N.am   52  LEU52      -0.1980
     30  CA        41.5410   37.5390   10.9640 C.3    52  LEU52       0.1596
     31  C         40.0570   37.8260   10.6610 C.2    52  LEU52       0.2287
     32  O         39.2610   36.9180   10.4710 O.2    52  LEU52      -0.2864
     33  CB        41.8900   36.0820   10.6070 C.3    52  LEU52       0.0297
     34  CG        43.3290   35.6330   10.8880 C.3    52  LEU52       0.0022
     35  CD1       43.5440   34.2710   10.2530 C.3    52  LEU52       0.0001
     36  CD2       44.3340   36.6540   10.3480 C.3    52  LEU52       0.0001
     37  N         42.8760   20.5440   11.8960 N.3   124  HIS124     -0.1241
     38  CA        43.3480   21.8920   12.2550 C.3   124  HIS124      0.1621
     39  C         43.0620   22.0820   13.7510 C.2   124  HIS124      0.2264
     40  O         42.8680   23.2100   14.2420 O.2   124  HIS124     -0.2867
     41  CB        42.6160   22.9100   11.3330 C.3   124  HIS124      0.0745
     42  CG        43.0960   24.3410   11.4120 C.ar  124  HIS124      0.0817
     43  ND1       44.1700   24.7550   12.1710 N.ar  124  HIS124     -0.2268
     44  CD2       42.6250   25.4590   10.7900 C.ar  124  HIS124      0.1154
     45  CE1       44.3340   26.0640   12.0230 C.ar  124  HIS124      0.1986
     46  NE2       43.4010   26.5150   11.2020 N.ar  124  HIS124     -0.2212
     47  N         39.9550   26.5910   17.4710 N.3   128  TRP128     -0.1241
     48  CA        40.8160   27.5710   16.8170 C.3   128  TRP128      0.1605
     49  C         41.1500   28.6610   17.8190 C.2   128  TRP128      0.2264
     50  O         40.5150   29.7270   17.8500 O.2   128  TRP128     -0.2867
     51  CB        40.1620   28.1490   15.5580 C.3   128  TRP128      0.0550
     52  CG        41.1450   28.9090   14.6770 C.ar  128  TRP128      0.0003
     53  CD1       42.2210   28.3810   13.9910 C.ar  128  TRP128      0.0946
     54  CD2       41.1550   30.3140   14.4050 C.ar  128  TRP128      0.0152
     55  NE1       42.8920   29.3770   13.3230 N.ar  128  TRP128     -0.2442
     56  CE2       42.2530   30.5700   13.5490 C.ar  128  TRP128      0.0810
     57  CE3       40.3640   31.3860   14.8170 C.ar  128  TRP128      0.0012
     58  CZ2       42.5610   31.8500   13.0910 C.ar  128  TRP128      0.0191
     59  CZ3       40.6740   32.6630   14.3560 C.ar  128  TRP128      0.0001
     60  CH2       41.7630   32.8750   13.4960 C.ar  128  TRP128      0.0015
     61  N         47.6050   20.4860   11.6400 N.3   162  TYR162     -0.1227
     62  CA        48.1280   21.8470   11.6700 C.3   162  TYR162      0.1736
     63  C         47.4000   22.6750   12.7310 C.2   162  TYR162      0.2596
     64  O         46.2070   22.9530   12.5980 O.2   162  TYR162     -0.2718
     65  CB        47.9610   22.4970   10.2860 C.3   162  TYR162      0.0548
     66  CG        48.2750   23.9830   10.2570 C.ar  162  TYR162     -0.0200
     67  CD1       49.5880   24.4160   10.1970 C.ar  162  TYR162     -0.0009
     68  CD2       47.2570   24.9540   10.2760 C.ar  162  TYR162     -0.0009
     69  CE1       49.9060   25.7640   10.1570 C.ar  162  TYR162      0.0417
     70  CE2       47.5670   26.3290   10.2240 C.ar  162  TYR162      0.0417
     71  CZ        48.9000   26.7140   10.1750 C.ar  162  TYR162      0.1957
     72  OH        49.2680   28.0550   10.1240 O.3   162  TYR162     -0.2866
     73  N         48.1080   23.0590   13.7880 N.am  163  THR163     -0.1939
     74  CA        47.5390   23.9260   14.8140 C.3   163  THR163      0.2028
     75  C         47.5530   25.3780   14.3870 C.2   163  THR163      0.2643
     76  O         46.5290   26.0300   14.4090 O.2   163  THR163     -0.2714
     77  CB        48.2600   23.7870   16.1620 C.3   163  THR163      0.1808
     78  OG1       47.9480   22.5140   16.7340 O.3   163  THR163     -0.2208
     79  CG2       47.8100   24.8780   17.1470 C.3   163  THR163      0.0379
     80  N         48.7170   25.8680   13.9670 N.am  164  GLY164     -0.1939
     81  CA        48.8900   27.2890   13.7180 C.3   164  GLY164      0.2014
     82  C         49.5570   27.9380   14.9120 C.2   164  GLY164      0.2638
     83  O         50.7830   28.0320   14.9730 O.2   164  GLY164     -0.2714
     84  N         48.7550   28.3790   15.8750 N.am  165  ARG165     -0.1977
     85  CA        49.2780   28.9560   17.0990 C.3   165  ARG165      0.1597
     86  C         49.6370   27.8580   18.1030 C.2   165  ARG165      0.2287
     87  O         49.0270   27.7160   19.1790 O.2   165  ARG165     -0.2864
     88  CB        48.2910   29.9710   17.6840 C.3   165  ARG165      0.0334
     89  CG        48.0890   31.1530   16.7470 C.3   165  ARG165      0.0492
     90  CD        46.8390   31.9840   17.1130 C.3   165  ARG165      0.2205
     91  NE        45.6080   31.3610   16.6190 N.pl3 165  ARG165     -0.0865
     92  CZ        44.3830   31.7060   17.0000 C.cat 165  ARG165      0.5346
     93  NH1       44.1880   32.6950   17.8860 N.pl3 165  ARG165      0.1354
     94  NH2       43.3620   31.0430   16.4940 N.pl3 165  ARG165      0.1354
     95  N         57.1420   26.8860    8.9400 N.3   187  TYR187     -0.1241
     96  CA        57.1490   27.8060    7.8220 C.3   187  TYR187      0.1605
     97  C         58.5890   27.9120    7.3180 C.2   187  TYR187      0.2264
     98  O         58.9950   28.9680    6.9010 O.2   187  TYR187     -0.2867
     99  CB        56.6040   29.1860    8.2510 C.3   187  TYR187      0.0534
    100  CG        55.3040   29.0570    9.0380 C.ar  187  TYR187     -0.0201
    101  CD1       54.0690   29.0270    8.3880 C.ar  187  TYR187     -0.0009
    102  CD2       55.3200   28.8950   10.4260 C.ar  187  TYR187     -0.0009
    103  CE1       52.8890   28.8880    9.1050 C.ar  187  TYR187      0.0417
    104  CE2       54.1460   28.7520   11.1490 C.ar  187  TYR187      0.0417
    105  CZ        52.9260   28.7380   10.4830 C.ar  187  TYR187      0.1957
    106  OH        51.7600   28.5730   11.2180 O.3   187  TYR187     -0.2866
    107  N         54.1740   25.0580    5.8360 N.3   209  TYR209     -0.1241
    108  CA        53.0080   25.8630    5.4390 C.3   209  TYR209      0.1605
    109  C         53.4650   27.2940    5.1270 C.2   209  TYR209      0.2264
    110  O         54.6200   27.4950    4.7660 O.2   209  TYR209     -0.2867
    111  CB        51.9210   25.8020    6.5190 C.3   209  TYR209      0.0534
    112  CG        50.5670   26.3940    6.1390 C.ar  209  TYR209     -0.0201
    113  CD1       49.9990   26.1710    4.8860 C.ar  209  TYR209     -0.0009
    114  CD2       49.8650   27.1750    7.0380 C.ar  209  TYR209     -0.0009
    115  CE1       48.7730   26.7090    4.5520 C.ar  209  TYR209      0.0417
    116  CE2       48.6260   27.7190    6.7080 C.ar  209  TYR209      0.0417
    117  CZ        48.0860   27.4730    5.4830 C.ar  209  TYR209      0.1957
    118  OH        46.8470   28.0070    5.1720 O.3   209  TYR209     -0.2866
    119  N         52.5860   31.7840    5.9150 N.3   211  LEU211     -0.1245
    120  CA        51.8720   32.9790    6.3520 C.3   211  LEU211      0.1561
    121  C         51.9690   34.1130    5.3040 C.2   211  LEU211      0.2260
    122  O         51.3190   35.1620    5.4430 O.2   211  LEU211     -0.2867
    123  CB        52.3830   33.4450    7.7320 C.3   211  LEU211      0.0270
    124  CG        52.3420   32.3860    8.8370 C.3   211  LEU211      0.0019
    125  CD1       52.9480   32.9010   10.0590 C.3   211  LEU211      0.0001
    126  CD2       50.9000   31.9150    9.1420 C.3   211  LEU211      0.0001
    127  N         45.1790   35.4440    4.6630 N.3   216  MET216     -0.1245
    128  CA        45.1210   36.1060    5.9730 C.3   216  MET216      0.1570
    129  C         45.6320   37.5460    5.8720 C.2   216  MET216      0.2261
    130  O         45.1760   38.4370    6.5900 O.2   216  MET216     -0.2867
    131  CB        45.9410   35.3530    7.0280 C.3   216  MET216      0.0387
    132  CG        47.4650   35.3340    6.7780 C.3   216  MET216      0.0595
    133  SD        48.3490   34.2410    7.9400 S.3   216  MET216     -0.1393
    134  CE        47.1600   32.9420    8.2130 C.3   216  MET216      0.0692
    135  N         41.0650   31.2310    3.5910 N.3   257  HIS257     -0.1241
    136  CA        40.0650   31.2060    4.6610 C.3   257  HIS257      0.1621
    137  C         38.6840   31.5640    4.1170 C.2   257  HIS257      0.2264
    138  O         38.5210   32.5110    3.3410 O.2   257  HIS257     -0.2867
    139  CB        40.4410   32.1470    5.8290 C.3   257  HIS257      0.0745
    140  CG        41.8200   31.9330    6.3970 C.ar  257  HIS257      0.0817
    141  ND1       42.9730   32.2550    5.7100 N.ar  257  HIS257     -0.2268
    142  CD2       42.2230   31.4700    7.6050 C.ar  257  HIS257      0.1154
    143  CE1       44.0270   31.9700    6.4590 C.ar  257  HIS257      0.1986
    144  NE2       43.5970   31.5190    7.6220 N.ar  257  HIS257     -0.2212
@<TRIPOS>BOND
     1   138   137    2
     2   135   136    1
     3   137   136    1
     4   115   113   ar
     5   115   117   ar
     6   136   139    1
     7   127   128    1
     8   110   109    2
     9   113   112   ar
    10     1     2    1
    11   109   108    1
    12   118   117    1
    13   121   122    2
    14   121   120    1
    15   108   107    1
    16   108   111    1
    17   117   116   ar
    18   141   140   ar
    19   141   143   ar
    20   139   140    1
    21   129   128    1
    22   129   130    2
    23     4     3    2
    24   119   120    1
    25   128   131    1
    26     8     6   am
    27   112   111    1
    28   112   114   ar
    29     2     3    1
    30     2     5    1
    31   120   123    1
    32   140   142   ar
    33   143   144   ar
    34   116   114   ar
    35   132   131    1
    36   132   133    1
    37    98    97    2
    38     6     5    1
    39     6     7    2
    40    97    96    1
    41   142   144   ar
    42   123   124    1
    43    96    99    1
    44    96    95    1
    45   133   134    1
    46    99   100    1
    47   101   100   ar
    48   101   103   ar
    49   124   126    1
    50   124   125    1
    51   100   102   ar
    52   103   105   ar
    53     9    10    1
    54    72    71    1
    55    69    71   ar
    56    69    67   ar
    57    71    70   ar
    58    67    66   ar
    59    70    68   ar
    60    35    34    1
    61    66    68   ar
    62    66    65    1
    63    16    15   ar
    64    17    15   ar
    65    65    62    1
    66    36    34    1
    67   102   104   ar
    68    32    31    2
    69   105   104   ar
    70   105   106    1
    71    15    14    1
    72    33    34    1
    73    33    30    1
    74    31    30    1
    75    44    46   ar
    76    44    42   ar
    77    30    29    1
    78    14    13    1
    79    46    45   ar
    80    10    13    1
    81    10    11    1
    82    41    42    1
    83    41    38    1
    84    42    43   ar
    85    61    62    1
    86    62    63    1
    87    11    12    2
    88    37    38    1
    89    45    43   ar
    90    38    39    1
    91    29    20   am
    92    64    63    2
    93    63    73   am
    94    28    26   ar
    95    28    27   ar
    96    58    60   ar
    97    58    56   ar
    98    26    24   ar
    99    55    56   ar
   100    55    53   ar
   101    21    20    2
   102    20    19    1
   103    60    59   ar
   104    56    54   ar
   105    27    25   ar
   106    81    80    1
   107    81    82    1
   108    39    40    2
   109    73    74    1
   110    24    23   ar
   111    80    75   am
   112    53    52   ar
   113    59    57   ar
   114    25    23   ar
   115    75    76    2
   116    75    74    1
   117    54    52   ar
   118    54    57   ar
   119    23    22    1
   120    52    51    1
   121    19    22    1
   122    19    18    1
   123    74    77    1
   124    82    83    2
   125    82    84   am
   126    51    48    1
   127    84    85    1
   128    77    78    1
   129    77    79    1
   130    94    92    1
   131    91    92    2
   132    91    90    1
   133    89    90    1
   134    89    88    1
   135    48    47    1
   136    48    49    1
   137    92    93    1
   138    85    88    1
   139    85    86    1
   140    49    50    2
   141    86    87    2
