@<TRIPOS>MOLECULE
tmp/3cl8A00.pdb
 148 144 0 0 0
SMALL
GASTEIGER

@<TRIPOS>ATOM
      1  N         18.1800   15.4920  -19.2550 N.3    32  ASN32      -0.1240
      2  CA        18.2330   15.8450  -20.6700 C.3    32  ASN32       0.1653
      3  C         17.6820   17.2560  -20.9120 C.2    32  ASN32       0.2266
      4  O         16.9280   17.7900  -20.0890 O.2    32  ASN32      -0.2867
      5  CB        17.4450   14.8520  -21.5280 C.3    32  ASN32       0.1155
      6  CG        18.1070   13.4920  -21.6630 C.2    32  ASN32       0.2627
      7  OD1       18.7990   13.2380  -22.6450 O.2    32  ASN32      -0.2716
      8  ND2       17.8740   12.6060  -20.7010 N.am   32  ASN32      -0.0877
      9  N         16.1570   18.6410  -24.5450 N.3    34  GLU34      -0.1245
     10  CA        15.9050   18.3210  -25.9300 C.3    34  GLU34       0.1567
     11  C         14.8090   19.2440  -26.4480 C.2    34  GLU34       0.2260
     12  O         14.5470   19.3440  -27.6360 O.2    34  GLU34      -0.2867
     13  CB        15.4400   16.8550  -26.0690 C.3    34  GLU34       0.0388
     14  CG        16.1340   15.9240  -25.1030 C.3    34  GLU34       0.1160
     15  CD        15.4000   14.6610  -24.8160 C.2    34  GLU34       0.3649
     16  OE1       14.2770   14.6980  -24.2970 O.co2  34  GLU34      -0.2457
     17  OE2       15.9650   13.6000  -25.1240 O.co2  34  GLU34      -0.2457
     18  N          7.7020   11.4240  -30.1430 N.3    51  PHE51      -0.1227
     19  CA         8.3670   10.7250  -29.0330 C.3    51  PHE51       0.1736
     20  C          8.1770   11.5070  -27.7270 C.2    51  PHE51       0.2595
     21  O          8.0240   12.7020  -27.7410 O.2    51  PHE51      -0.2718
     22  CB         9.8590   10.5590  -29.3670 C.3    51  PHE51       0.0547
     23  CG        10.5610    9.4360  -28.6080 C.ar   51  PHE51      -0.0202
     24  CD1        9.8400    8.5190  -27.8430 C.ar   51  PHE51      -0.0042
     25  CD2       11.9540    9.2980  -28.6690 C.ar   51  PHE51      -0.0042
     26  CE1       10.5000    7.5000  -27.1460 C.ar   51  PHE51      -0.0003
     27  CE2       12.6120    8.2880  -27.9760 C.ar   51  PHE51      -0.0003
     28  CZ        11.8790    7.3950  -27.2210 C.ar   51  PHE51      -0.0000
     29  N          8.1280   10.7990  -26.6170 N.am   52  LEU52      -0.1980
     30  CA         8.0380   11.2480  -25.2230 C.3    52  LEU52       0.1596
     31  C          7.3200   12.5430  -24.9220 C.2    52  LEU52       0.2287
     32  O          7.9490   13.5670  -24.7260 O.2    52  LEU52      -0.2864
     33  CB         9.4490   11.2980  -24.5890 C.3    52  LEU52       0.0297
     34  CG        10.2910   10.0220  -24.7450 C.3    52  LEU52       0.0022
     35  CD1       11.7090   10.2630  -24.2100 C.3    52  LEU52       0.0001
     36  CD2        9.5990    8.8320  -24.0670 C.3    52  LEU52       0.0001
     37  N         24.3200   15.9340  -26.2170 N.3   124  HIS124     -0.1241
     38  CA        23.2360   15.0100  -26.5500 C.3   124  HIS124      0.1621
     39  C         22.9610   15.0100  -28.0490 C.2   124  HIS124      0.2264
     40  O         21.9320   14.5110  -28.5470 O.2   124  HIS124     -0.2867
     41  CB        21.9670   15.2930  -25.7210 C.3   124  HIS124      0.0745
     42  CG        20.8960   14.2440  -25.8410 C.ar  124  HIS124      0.0817
     43  ND1       19.6040   14.4380  -25.4040 N.ar  124  HIS124     -0.2268
     44  CD2       20.9170   13.0000  -26.3680 C.ar  124  HIS124      0.1154
     45  CE1       18.8870   13.3640  -25.6710 C.ar  124  HIS124      0.1986
     46  NE2       19.6580   12.4800  -26.2590 N.ar  124  HIS124     -0.2212
     47  N         17.6900   16.4940  -31.4970 N.3   128  TRP128     -0.1227
     48  CA        17.0460   15.3290  -30.9250 C.3   128  TRP128      0.1737
     49  C         16.2280   14.5630  -31.9390 C.2   128  TRP128      0.2595
     50  O         15.0200   14.8030  -32.0920 O.2   128  TRP128     -0.2718
     51  CB        16.1550   15.6790  -29.7410 C.3   128  TRP128      0.0564
     52  CG        15.8430   14.4320  -28.9350 C.ar  128  TRP128      0.0003
     53  CD1       16.7440   13.6070  -28.3400 C.ar  128  TRP128      0.0946
     54  CD2       14.5510   13.8920  -28.6390 C.ar  128  TRP128      0.0152
     55  NE1       16.0960   12.5900  -27.6940 N.ar  128  TRP128     -0.2442
     56  CE2       14.7520   12.7280  -27.8750 C.ar  128  TRP128      0.0810
     57  CE3       13.2480   14.2780  -28.9660 C.ar  128  TRP128      0.0012
     58  CZ2       13.7090   11.9450  -27.4190 C.ar  128  TRP128      0.0191
     59  CZ3       12.2130   13.5040  -28.5310 C.ar  128  TRP128      0.0001
     60  CH2       12.4410   12.3540  -27.7480 C.ar  128  TRP128      0.0015
     61  N         16.8930   13.6150  -32.5910 N.am  129  ILE129     -0.1980
     62  CA        16.2800   12.7540  -33.5750 C.3   129  ILE129      0.1595
     63  C         16.9980   11.4030  -33.6110 C.2   129  ILE129      0.2287
     64  O         17.9520   11.1670  -32.8370 O.2   129  ILE129     -0.2864
     65  CB        16.2940   13.3840  -34.9940 C.3   129  ILE129      0.0276
     66  CG1       17.7150   13.7970  -35.4400 C.3   129  ILE129      0.0022
     67  CG2       15.3210   14.5570  -35.0450 C.3   129  ILE129      0.0022
     68  CD1       17.8640   14.1440  -36.9120 C.3   129  ILE129      0.0001
     69  N         26.2060   11.4510  -25.9780 N.3   162  TYR162     -0.1227
     70  CA        25.1240   10.4970  -25.9790 C.3   162  TYR162      0.1736
     71  C         24.1080   10.9070  -27.0350 C.2   162  TYR162      0.2596
     72  O         23.4490   11.9340  -26.8970 O.2   162  TYR162     -0.2718
     73  CB        24.4720   10.4010  -24.5940 C.3   162  TYR162      0.0548
     74  CG        23.1860    9.5960  -24.5720 C.ar  162  TYR162     -0.0200
     75  CD1       23.2120    8.2290  -24.4560 C.ar  162  TYR162     -0.0009
     76  CD2       21.9410   10.2120  -24.6330 C.ar  162  TYR162     -0.0009
     77  CE1       22.0590    7.4910  -24.4340 C.ar  162  TYR162      0.0417
     78  CE2       20.7730    9.4660  -24.6190 C.ar  162  TYR162      0.0417
     79  CZ        20.8430    8.0960  -24.5120 C.ar  162  TYR162      0.1957
     80  OH        19.6810    7.3390  -24.4790 O.3   162  TYR162     -0.2866
     81  N         23.9670   10.1120  -28.0820 N.am  163  THR163     -0.1939
     82  CA        22.9270   10.3900  -29.0730 C.3   163  THR163      0.2028
     83  C         21.5540    9.8690  -28.6200 C.2   163  THR163      0.2643
     84  O         20.4960   10.5010  -28.7960 O.2   163  THR163     -0.2714
     85  CB        23.2660    9.7760  -30.4320 C.3   163  THR163      0.1808
     86  OG1       24.5180   10.2940  -30.8950 O.3   163  THR163     -0.2208
     87  CG2       22.1740   10.0900  -31.4820 C.3   163  THR163      0.0379
     88  N         21.5480    8.6660  -28.0720 N.am  164  GLY164     -0.1939
     89  CA        20.2660    8.0210  -27.7590 C.3   164  GLY164      0.2014
     90  C         19.8040    7.1770  -28.9330 C.2   164  GLY164      0.2638
     91  O         20.0730    5.9780  -28.9970 O.2   164  GLY164     -0.2714
     92  N         19.1220    7.8270  -29.8680 N.am  165  ARG165     -0.1977
     93  CA        18.6430    7.1730  -31.0770 C.3   165  ARG165      0.1597
     94  C         19.7750    6.9230  -32.0720 C.2   165  ARG165      0.2287
     95  O         19.7740    7.4270  -33.1980 O.2   165  ARG165     -0.2864
     96  CB        17.5440    8.0130  -31.7150 C.3   165  ARG165      0.0334
     97  CG        16.2750    7.2550  -31.9290 C.3   165  ARG165      0.0492
     98  CD        15.0370    7.9830  -31.4340 C.3   165  ARG165      0.2205
     99  NE        15.2910    9.3080  -30.8810 N.pl3 165  ARG165     -0.0865
    100  CZ        14.5400   10.3610  -31.1730 C.cat 165  ARG165      0.5346
    101  NH1       13.5250   10.2340  -32.0010 N.pl3 165  ARG165      0.1354
    102  NH2       14.8170   11.5330  -30.6430 N.pl3 165  ARG165      0.1354
    103  N         24.1550    3.9940  -20.1280 N.3   209  TYR209     -0.1241
    104  CA        23.0090    4.7840  -19.6730 C.3   209  TYR209      0.1605
    105  C         21.8150    3.8380  -19.4780 C.2   209  TYR209      0.2264
    106  O         21.9670    2.6140  -19.4970 O.2   209  TYR209     -0.2867
    107  CB        22.7310    5.8870  -20.6820 C.3   209  TYR209      0.0534
    108  CG        21.7160    6.9140  -20.2970 C.ar  209  TYR209     -0.0201
    109  CD1       21.6320    7.4190  -18.9970 C.ar  209  TYR209     -0.0009
    110  CD2       20.8190    7.4070  -21.2460 C.ar  209  TYR209     -0.0009
    111  CE1       20.6910    8.3940  -18.6500 C.ar  209  TYR209      0.0417
    112  CE2       19.8840    8.3730  -20.8970 C.ar  209  TYR209      0.0417
    113  CZ        19.8380    8.8680  -19.6110 C.ar  209  TYR209      0.1957
    114  OH        18.8880    9.8220  -19.3130 O.3   209  TYR209     -0.2866
    115  N         17.4140    2.9240  -20.1170 N.3   211  LEU211     -0.1245
    116  CA        16.0780    3.1180  -20.6690 C.3   211  LEU211      0.1561
    117  C         15.0360    2.4900  -19.7360 C.2   211  LEU211      0.2260
    118  O         13.8560    2.4040  -20.0560 O.2   211  LEU211     -0.2867
    119  CB        15.9470    2.5420  -22.0870 C.3   211  LEU211      0.0270
    120  CG        16.8620    3.0710  -23.1940 C.3   211  LEU211      0.0019
    121  CD1       16.6470    2.3290  -24.5020 C.3   211  LEU211      0.0001
    122  CD2       16.6550    4.5760  -23.3890 C.3   211  LEU211      0.0001
    123  N         14.6430    5.4450  -16.2200 N.3   214  ASN214     -0.1240
    124  CA        14.4170    6.6160  -17.0560 C.3   214  ASN214      0.1653
    125  C         12.9860    7.1030  -16.9240 C.2   214  ASN214      0.2266
    126  O         12.0630    6.3040  -17.0530 O.2   214  ASN214     -0.2867
    127  CB        14.6850    6.2000  -18.4970 C.3   214  ASN214      0.1155
    128  CG        15.1090    7.3110  -19.4200 C.2   214  ASN214      0.2627
    129  OD1       16.2060    7.2580  -19.9610 O.2   214  ASN214     -0.2716
    130  ND2       14.2470    8.2590  -19.6490 N.am  214  ASN214     -0.0877
    131  N         11.3120    8.5930  -18.9420 N.3   216  MET216     -0.1245
    132  CA        10.6560    8.3980  -20.2490 C.3   216  MET216      0.1570
    133  C          9.5430    7.3650  -20.2110 C.2   216  MET216      0.2261
    134  O          8.6160    7.4020  -21.0210 O.2   216  MET216     -0.2867
    135  CB        11.6840    7.9720  -21.2980 C.3   216  MET216      0.0387
    136  CG        11.9440    6.4670  -21.3210 C.3   216  MET216      0.0595
    137  SD        13.3800    6.0480  -22.3180 S.3   216  MET216     -0.1393
    138  CE        12.8250    4.4770  -23.0080 C.3   216  MET216      0.0692
    139  N         13.7070   14.0860  -17.8720 N.3   257  HIS257     -0.1241
    140  CA        13.3740   14.9830  -18.9690 C.3   257  HIS257      0.1621
    141  C         12.5330   16.1090  -18.4030 C.2   257  HIS257      0.2264
    142  O         11.6350   15.8870  -17.6090 O.2   257  HIS257     -0.2867
    143  CB        12.6230   14.2750  -20.0910 C.3   257  HIS257      0.0745
    144  CG        13.3660   13.1170  -20.6810 C.ar  257  HIS257      0.0817
    145  ND1       13.7170   11.9990  -19.9480 N.ar  257  HIS257     -0.2268
    146  CD2       13.8270   12.9000  -21.9340 C.ar  257  HIS257      0.1154
    147  CE1       14.3570   11.1400  -20.7220 C.ar  257  HIS257      0.1986
    148  NE2       14.4290   11.6660  -21.9330 N.ar  257  HIS257     -0.2212
@<TRIPOS>BOND
     1    68    66    1
     2    66    65    1
     3    67    65    1
     4    65    62    1
     5    63    62    1
     6    63    64    2
     7    62    61    1
     8    95    94    2
     9    61    49   am
    10    50    49    2
    11    94    93    1
    12   101   100    1
    13    49    48    1
    14    97    96    1
    15    97    98    1
    16    96    93    1
    17    47    48    1
    18    87    85    1
    19    98    99    1
    20   100    99    2
    21   100   102    1
    22    93    92    1
    23    48    51    1
    24    86    85    1
    25    85    82    1
    26    18    19    1
    27    92    90   am
    28    51    52    1
    29    22    19    1
    30    22    23    1
    31    82    83    1
    32    82    81    1
    33    19    20    1
    34    91    90    2
    35    57    54   ar
    36    57    59   ar
    37    52    54   ar
    38    52    53   ar
    39    90    89    1
    40    84    83    2
    41    25    23   ar
    42    25    27   ar
    43    54    56   ar
    44    83    88   am
    45    23    24   ar
    46    40    39    2
    47    59    60   ar
    48    53    55   ar
    49    81    71   am
    50    88    89    1
    51    39    38    1
    52    27    28   ar
    53    56    55   ar
    54    56    58   ar
    55    24    26   ar
    56    60    58   ar
    57    21    20    2
    58    20    29   am
    59    12    11    2
    60    28    26   ar
    61    71    72    2
    62    71    70    1
    63    29    30    1
    64    38    37    1
    65    38    41    1
    66    11    10    1
    67    44    46   ar
    68    44    42   ar
    69    46    45   ar
    70    13    10    1
    71    13    14    1
    72    70    69    1
    73    70    73    1
    74    10     9    1
    75    42    41    1
    76    42    43   ar
    77    45    43   ar
    78    30    31    1
    79    30    33    1
    80    17    15   ar
    81    14    15    1
    82    31    32    2
    83    15    16   ar
    84    34    33    1
    85    34    35    1
    86    34    36    1
    87    76    78   ar
    88    76    74   ar
    89    78    79   ar
    90    73    74    1
    91    74    75   ar
    92    79    80    1
    93    79    77   ar
    94   121   120    1
    95    75    77   ar
    96   122   120    1
    97   120   119    1
    98   138   137    1
    99     7     6    2
   100   137   136    1
   101   119   116    1
   102   146   148   ar
   103   146   144   ar
   104   148   147   ar
   105     6     5    1
   106     6     8   am
   107     5     2    1
   108   136   135    1
   109   135   132    1
   110   110   112   ar
   111   110   108   ar
   112   134   133    2
   113     3     2    1
   114     3     4    2
   115   112   113   ar
   116   147   145   ar
   117   107   108    1
   118   107   104    1
   119   144   143    1
   120   144   145   ar
   121     2     1    1
   122   116   115    1
   123   116   117    1
   124   108   109   ar
   125   132   133    1
   126   132   131    1
   127   103   104    1
   128   143   140    1
   129   118   117    2
   130   129   128    2
   131   104   105    1
   132   130   128   am
   133   113   114    1
   134   113   111   ar
   135   106   105    2
   136   128   127    1
   137   109   111   ar
   138   140   141    1
   139   140   139    1
   140   127   124    1
   141   141   142    2
   142   124   125    1
   143   124   123    1
   144   126   125    2
