@<TRIPOS>MOLECULE
tmp/3clbD01.pdb
 150 144 0 0 0
SMALL
GASTEIGER

@<TRIPOS>ATOM
      1  N         61.2110  -26.4780   30.4220 N.3    26  VAL26      -0.1231
      2  CA        62.3340  -26.4040   29.4850 C.3    26  VAL26       0.1692
      3  C         61.9870  -27.1100   28.1800 C.2    26  VAL26       0.2592
      4  O         61.6420  -28.2940   28.1700 O.2    26  VAL26      -0.2718
      5  CB        63.6210  -27.0270   30.0680 C.3    26  VAL26       0.0266
      6  CG1       64.7740  -26.8670   29.0990 C.3    26  VAL26       0.0020
      7  CG2       63.9800  -26.3820   31.3860 C.3    26  VAL26       0.0020
      8  N         62.0990  -26.3790   27.0760 N.am   27  VAL27      -0.1966
      9  CA        61.6930  -26.8920   25.7730 C.3    27  VAL27       0.1727
     10  C         62.5530  -26.3490   24.6310 C.2    27  VAL27       0.2616
     11  O         63.1610  -25.2810   24.7440 O.2    27  VAL27      -0.2715
     12  CB        60.1860  -26.6010   25.5110 C.3    27  VAL27       0.0290
     13  CG1       59.9350  -25.1040   25.3680 C.3    27  VAL27       0.0023
     14  CG2       59.6800  -27.3610   24.2970 C.3    27  VAL27       0.0023
     15  N         62.6050  -27.1170   23.5460 N.am   28  ALA28      -0.1977
     16  CA        63.1650  -26.6760   22.2790 C.3    28  ALA28       0.1597
     17  C         62.0580  -26.7120   21.2170 C.2    28  ALA28       0.2287
     18  O         61.2210  -27.6110   21.2230 O.2    28  ALA28      -0.2864
     19  CB        64.3210  -27.5640   21.8880 C.3    28  ALA28       0.0319
     20  N         63.2500  -36.5710   18.5000 N.3    41  ILE41      -0.1245
     21  CA        63.5390  -35.1530   18.3130 C.3    41  ILE41       0.1561
     22  C         64.2570  -34.9580   16.9640 C.2    41  ILE41       0.2260
     23  O         65.3000  -35.5740   16.7200 O.2    41  ILE41      -0.2867
     24  CB        64.3310  -34.5770   19.5260 C.3    41  ILE41       0.0252
     25  CG1       64.6280  -33.0870   19.3300 C.3    41  ILE41       0.0019
     26  CG2       65.5990  -35.4360   19.8350 C.3    41  ILE41       0.0019
     27  CD1       65.0230  -32.3810   20.5990 C.3    41  ILE41       0.0001
     28  N         72.1770  -26.7910   22.4570 N.3    48  ASP48      -0.1225
     29  CA        70.9020  -26.9100   23.1730 C.3    48  ASP48       0.1805
     30  C         70.9900  -27.9990   24.2410 C.2    48  ASP48       0.2597
     31  O         70.5060  -27.8210   25.3560 O.2    48  ASP48      -0.2718
     32  CB        69.7560  -27.2130   22.1960 C.3    48  ASP48       0.1424
     33  CG        68.4660  -27.6230   22.9020 C.2    48  ASP48       0.3668
     34  OD1       67.8980  -26.8000   23.6550 O.co2  48  ASP48      -0.2456
     35  OD2       68.0130  -28.7700   22.6940 O.co2  48  ASP48      -0.2456
     36  N         71.6110  -29.1210   23.8860 N.am   49  MET49      -0.1979
     37  CA        71.8710  -30.2100   24.8240 C.3    49  MET49       0.1605
     38  C         72.6700  -29.7390   26.0360 C.2    49  MET49       0.2287
     39  O         72.3560  -30.1110   27.1640 O.2    49  MET49      -0.2864
     40  CB        72.6150  -31.3600   24.1350 C.3    49  MET49       0.0413
     41  CG        71.8320  -32.0760   23.0550 C.3    49  MET49       0.0598
     42  SD        70.2770  -32.7700   23.6460 S.3    49  MET49      -0.1393
     43  CE        69.9960  -34.0200   22.3840 C.3    49  MET49       0.0692
     44  N         72.8990  -26.5970   27.1630 N.3    51  PHE51      -0.1227
     45  CA        72.0230  -25.6920   27.9000 C.3    51  PHE51       0.1736
     46  C         71.0580  -26.4900   28.7620 C.2    51  PHE51       0.2595
     47  O         70.9030  -26.2040   29.9470 O.2    51  PHE51      -0.2718
     48  CB        71.2500  -24.7760   26.9440 C.3    51  PHE51       0.0547
     49  CG        70.2810  -23.8520   27.6380 C.ar   51  PHE51      -0.0202
     50  CD1       70.7210  -22.6490   28.1920 C.ar   51  PHE51      -0.0042
     51  CD2       68.9300  -24.1850   27.7420 C.ar   51  PHE51      -0.0042
     52  CE1       69.8350  -21.7880   28.8430 C.ar   51  PHE51      -0.0003
     53  CE2       68.0290  -23.3310   28.3970 C.ar   51  PHE51      -0.0003
     54  CZ        68.4850  -22.1290   28.9460 C.ar   51  PHE51      -0.0000
     55  N         70.4300  -27.4990   28.1580 N.am   52  PHE52      -0.1962
     56  CA        69.4320  -28.3170   28.8370 C.3    52  PHE52       0.1771
     57  C         70.0060  -29.0030   30.0630 C.2    52  PHE52       0.2619
     58  O         69.3750  -29.0230   31.1170 O.2    52  PHE52      -0.2715
     59  CB        68.8370  -29.3600   27.8950 C.3    52  PHE52       0.0574
     60  CG        68.0370  -30.4150   28.5990 C.ar   52  PHE52      -0.0200
     61  CD1       66.6950  -30.2100   28.8810 C.ar   52  PHE52      -0.0042
     62  CD2       68.6310  -31.6100   28.9970 C.ar   52  PHE52      -0.0042
     63  CE1       65.9480  -31.1820   29.5390 C.ar   52  PHE52      -0.0003
     64  CE2       67.8950  -32.5860   29.6630 C.ar   52  PHE52      -0.0003
     65  CZ        66.5490  -32.3710   29.9310 C.ar   52  PHE52      -0.0000
     66  N         71.1980  -29.5720   29.9180 N.am   53  ARG53      -0.1977
     67  CA        71.8600  -30.2360   31.0270 C.3    53  ARG53       0.1597
     68  C         72.1850  -29.2360   32.1370 C.2    53  ARG53       0.2287
     69  O         72.0350  -29.5480   33.3160 O.2    53  ARG53      -0.2864
     70  CB        73.1230  -30.9530   30.5490 C.3    53  ARG53       0.0334
     71  CG        73.7090  -31.9290   31.5640 C.3    53  ARG53       0.0492
     72  CD        75.1660  -32.2390   31.2660 C.3    53  ARG53       0.2205
     73  NE        75.9430  -31.0160   31.0640 N.pl3  53  ARG53      -0.0865
     74  CZ        77.0650  -30.9430   30.3510 C.cat  53  ARG53       0.5346
     75  NH1       77.5540  -32.0300   29.7640 N.pl3  53  ARG53       0.1354
     76  NH2       77.6950  -29.7770   30.2190 N.pl3  53  ARG53       0.1354
     77  N         59.0470  -39.7150   26.0360 N.3    80  THR80      -0.1218
     78  CA        60.2700  -38.9130   26.0940 C.3    80  THR80       0.1862
     79  C         61.4060  -39.7100   26.7270 C.2    80  THR80       0.2287
     80  O         62.5430  -39.6540   26.2640 O.2    80  THR80      -0.2866
     81  CB        60.0610  -37.6170   26.9030 C.3    80  THR80       0.1770
     82  OG1       58.9300  -36.9050   26.3910 O.3    80  THR80      -0.2211
     83  CG2       61.2860  -36.7290   26.8160 C.3    80  THR80       0.0375
     84  N         62.7380  -42.0030   24.2690 N.3    83  SER83      -0.1202
     85  CA        63.5330  -41.3350   23.2370 C.3    83  SER83       0.2020
     86  C         64.9920  -41.1280   23.6570 C.2    83  SER83       0.2619
     87  O         65.8590  -40.9030   22.8110 O.2    83  SER83      -0.2717
     88  CB        62.8850  -40.0130   22.7940 C.3    83  SER83       0.2103
     89  OG        63.0100  -38.9930   23.7710 O.3    83  SER83      -0.2182
     90  N         65.2540  -41.2020   24.9600 N.am   84  ILE84      -0.1966
     91  CA        66.6140  -41.1150   25.4810 C.3    84  ILE84       0.1712
     92  C         67.2330  -42.5130   25.4580 C.2    84  ILE84       0.2458
     93  O         66.6690  -43.4450   26.0360 O.2    84  ILE84      -0.2730
     94  CB        66.6500  -40.5390   26.9220 C.3    84  ILE84       0.0289
     95  CG1       65.9950  -39.1510   26.9620 C.3    84  ILE84       0.0022
     96  CG2       68.0870  -40.4840   27.4460 C.3    84  ILE84       0.0023
     97  CD1       65.7690  -38.5830   28.3560 C.3    84  ILE84       0.0001
     98  N         68.3820  -42.6730   24.7660 N.am   85  PRO85      -0.2727
     99  CA        69.1160  -43.9370   24.8030 C.3    85  PRO85       0.1402
    100  C         69.3320  -44.4300   26.2370 C.2    85  PRO85       0.2269
    101  O         69.7080  -43.6430   27.1160 O.2    85  PRO85      -0.2865
    102  CB        70.4500  -43.5800   24.1500 C.3    85  PRO85       0.0296
    103  CG        70.1020  -42.5030   23.2000 C.3    85  PRO85       0.0237
    104  CD        69.0470  -41.6910   23.8910 C.3    85  PRO85       0.0939
    105  N         72.2630  -43.3680   28.6020 N.3    88  PHE88      -0.1241
    106  CA        72.3500  -42.0380   29.2100 C.3    88  PHE88       0.1605
    107  C         71.2500  -41.7420   30.2280 C.2    88  PHE88       0.2264
    108  O         71.1430  -40.6100   30.7170 O.2    88  PHE88      -0.2867
    109  CB        72.3790  -40.9430   28.1350 C.3    88  PHE88       0.0534
    110  CG        73.4590  -41.1280   27.1050 C.ar   88  PHE88      -0.0203
    111  CD1       74.7830  -41.3530   27.4900 C.ar   88  PHE88      -0.0042
    112  CD2       73.1540  -41.0640   25.7470 C.ar   88  PHE88      -0.0042
    113  CE1       75.7880  -41.5300   26.5380 C.ar   88  PHE88      -0.0003
    114  CE2       74.1500  -41.2320   24.7820 C.ar   88  PHE88      -0.0003
    115  CZ        75.4720  -41.4680   25.1790 C.ar   88  PHE88      -0.0000
    116  N         69.0250  -39.4100   33.8540 N.3    91  LEU91      -0.1245
    117  CA        69.8250  -38.2110   33.7040 C.3    91  LEU91       0.1561
    118  C         70.5580  -37.9320   35.0200 C.2    91  LEU91       0.2260
    119  O         69.9160  -37.7040   36.0410 O.2    91  LEU91      -0.2867
    120  CB        68.9430  -37.0310   33.2630 C.3    91  LEU91       0.0270
    121  CG        68.1250  -37.2370   31.9730 C.3    91  LEU91       0.0019
    122  CD1       67.0520  -36.1700   31.8030 C.3    91  LEU91       0.0001
    123  CD2       69.0050  -37.3240   30.7280 C.3    91  LEU91       0.0001
    124  N         60.4830  -31.3500   31.5450 N.3   148  ILE148     -0.1245
    125  CA        61.2410  -31.5380   30.3030 C.3   148  ILE148      0.1561
    126  C         60.3510  -32.1210   29.2050 C.2   148  ILE148      0.2260
    127  O         60.7840  -32.3470   28.0740 O.2   148  ILE148     -0.2867
    128  CB        62.5240  -32.3710   30.5160 C.3   148  ILE148      0.0252
    129  CG1       62.1920  -33.8460   30.7570 C.3   148  ILE148      0.0019
    130  CG2       63.3380  -31.7740   31.6640 C.3   148  ILE148      0.0019
    131  CD1       63.3600  -34.7710   30.5450 C.3   148  ILE148      0.0001
    132  N         53.6460  -30.9800   28.2190 N.3   154  TYR154     -0.1241
    133  CA        53.6600  -29.5350   27.9980 C.3   154  TYR154      0.1605
    134  C         52.2370  -28.9990   27.9280 C.2   154  TYR154      0.2264
    135  O         51.9480  -27.9370   28.4590 O.2   154  TYR154     -0.2867
    136  CB        54.3810  -29.1870   26.6960 C.3   154  TYR154      0.0534
    137  CG        55.8760  -29.3790   26.7030 C.ar  154  TYR154     -0.0201
    138  CD1       56.6590  -28.9570   27.7800 C.ar  154  TYR154     -0.0009
    139  CD2       56.5180  -29.9510   25.6070 C.ar  154  TYR154     -0.0009
    140  CE1       58.0500  -29.1250   27.7720 C.ar  154  TYR154      0.0417
    141  CE2       57.9060  -30.1250   25.5860 C.ar  154  TYR154      0.0417
    142  CZ        58.6660  -29.7100   26.6680 C.ar  154  TYR154      0.1957
    143  OH        60.0350  -29.8840   26.6380 O.3   154  TYR154     -0.2866
    144  N         64.3910  -22.9110   23.8270 N.3   172  THR172     -0.1218
    145  CA        65.3870  -22.8360   22.7690 C.3   172  THR172      0.1862
    146  C         64.6160  -22.8360   21.4650 C.2   172  THR172      0.2287
    147  O         63.7300  -23.6650   21.2650 O.2   172  THR172     -0.2866
    148  CB        66.3340  -24.0610   22.7890 C.3   172  THR172      0.1770
    149  OG1       66.8330  -24.2750   24.1140 O.3   172  THR172     -0.2211
    150  CG2       67.5090  -23.8690   21.8470 C.3   172  THR172      0.0375
@<TRIPOS>BOND
     1    23    22    2
     2    22    21    1
     3    21    20    1
     4    21    24    1
     5    25    24    1
     6    25    27    1
     7    24    26    1
     8    17    18    2
     9    17    16    1
    10   147   146    2
    11   146   145    1
    12   150   148    1
    13    19    16    1
    14    32    33    1
    15    32    29    1
    16    16    15    1
    17    43    42    1
    18    28    29    1
    19    35    33   ar
    20   145   148    1
    21   145   144    1
    22   148   149    1
    23    88    85    1
    24    88    89    1
    25    87    86    2
    26    33    34   ar
    27    41    42    1
    28    41    40    1
    29    29    30    1
    30   103   104    1
    31   103   102    1
    32    85    86    1
    33    85    84    1
    34    15    10   am
    35    86    90   am
    36    36    30   am
    37    36    37    1
    38   104    98    1
    39    40    37    1
    40   102    99    1
    41    30    31    2
    42    14    12    1
    43    10    11    2
    44    10     9    1
    45    98    99    1
    46    98    92   am
    47   114   115   ar
    48   114   112   ar
    49    99   100    1
    50    37    38    1
    51    90    91    1
    52   115   113   ar
    53    13    12    1
    54    92    91    1
    55    92    93    2
    56    91    94    1
    57    12     9    1
    58   141   139   ar
    59   141   142   ar
    60   139   137   ar
    61   112   110   ar
    62     9     8    1
    63    77    78    1
    64    38    39    2
    65    78    79    1
    66    78    81    1
    67   100   101    2
    68    80    79    2
    69    82    81    1
    70   113   111   ar
    71   143   142    1
    72   142   140   ar
    73   136   137    1
    74   136   133    1
    75   137   138   ar
    76    83    81    1
    77    94    95    1
    78    94    96    1
    79    48    49    1
    80    48    45    1
    81    95    97    1
    82     8     3   am
    83   110   111   ar
    84   110   109    1
    85    44    45    1
    86    49    51   ar
    87    49    50   ar
    88    51    53   ar
    89   140   138   ar
    90    59    60    1
    91    59    56    1
    92    45    46    1
    93   134   133    1
    94   134   135    2
    95   133   132    1
    96   127   126    2
    97   109   106    1
    98    55    46   am
    99    55    56    1
   100     4     3    2
   101     3     2    1
   102    50    52   ar
   103    53    54   ar
   104    60    61   ar
   105    60    62   ar
   106   105   106    1
   107    46    47    2
   108    56    57    1
   109    52    54   ar
   110    61    63   ar
   111    62    64   ar
   112     6     5    1
   113   126   125    1
   114   106   107    1
   115     2     5    1
   116     2     1    1
   117    63    65   ar
   118    64    65   ar
   119    75    74    1
   120    66    57   am
   121    66    67    1
   122    57    58    2
   123     5     7    1
   124    76    74    1
   125   107   108    2
   126   125   128    1
   127   125   124    1
   128    74    73    2
   129   128   129    1
   130   128   130    1
   131   131   129    1
   132    70    67    1
   133    70    71    1
   134   123   121    1
   135    67    68    1
   136    73    72    1
   137    72    71    1
   138   122   121    1
   139   121   120    1
   140    68    69    2
   141   120   117    1
   142   117   116    1
   143   117   118    1
   144   118   119    2
