@<TRIPOS>MOLECULE
tmp/3cldA00.pdb
 146 137 0 0 0
SMALL
GASTEIGER

@<TRIPOS>ATOM
      1  N         35.3350    0.8940   -3.9070 N.3    46  VAL46      -0.1231
      2  CA        36.3700   -0.0160   -3.4270 C.3    46  VAL46       0.1692
      3  C         36.7350   -1.0640   -4.4920 C.2    46  VAL46       0.2591
      4  O         37.9120   -1.3520   -4.7100 O.2    46  VAL46      -0.2718
      5  CB        35.9590   -0.6760   -2.0810 C.3    46  VAL46       0.0266
      6  CG1       36.8460   -1.8750   -1.7440 C.3    46  VAL46       0.0020
      7  CG2       36.0030    0.3610   -0.9530 C.3    46  VAL46       0.0020
      8  N         35.7250   -1.6110   -5.1640 N.am   47  ILE47      -0.1980
      9  CA        35.9370   -2.5760   -6.2410 C.3    47  ILE47       0.1595
     10  C         36.7870   -1.9380   -7.3420 C.2    47  ILE47       0.2287
     11  O         37.7140   -2.5630   -7.8590 O.2    47  ILE47      -0.2864
     12  CB        34.5940   -3.0940   -6.7960 C.3    47  ILE47       0.0276
     13  CG1       33.8260   -3.8240   -5.6950 C.3    47  ILE47       0.0022
     14  CG2       34.8090   -4.0340   -7.9600 C.3    47  ILE47       0.0022
     15  CD1       32.3320   -3.6700   -5.7860 C.3    47  ILE47       0.0001
     16  N         40.4720   -1.7230   -6.1360 N.3    50  VAL50      -0.1231
     17  CA        41.1700   -2.9900   -6.2430 C.3    50  VAL50       0.1692
     18  C         41.7800   -3.1030   -7.6360 C.2    50  VAL50       0.2591
     19  O         42.9860   -3.3030   -7.7660 O.2    50  VAL50      -0.2718
     20  CB        40.2370   -4.1740   -5.9400 C.3    50  VAL50       0.0266
     21  CG1       40.9540   -5.5190   -6.1620 C.3    50  VAL50       0.0020
     22  CG2       39.7240   -4.0640   -4.5170 C.3    50  VAL50       0.0020
     23  N         40.9500   -2.9390   -8.6660 N.am   51  LYS51      -0.1980
     24  CA        41.4140   -2.9610  -10.0600 C.3    51  LYS51       0.1596
     25  C         42.5320   -1.9480  -10.2590 C.2    51  LYS51       0.2287
     26  O         43.4950   -2.2130  -10.9720 O.2    51  LYS51      -0.2864
     27  CB        40.2670   -2.6800  -11.0230 C.3    51  LYS51       0.0298
     28  CG        39.0950   -3.6350  -10.8900 C.3    51  LYS51       0.0038
     29  CD        39.5070   -5.0720  -11.0370 C.3    51  LYS51       0.0206
     30  CE        38.2760   -5.9650  -11.1980 C.3    51  LYS51       0.1093
     31  NZ        37.4980   -6.1410   -9.9430 N.3    51  LYS51      -0.1314
     32  N         45.9790   -3.0880   -8.4820 N.3    54  LYS54      -0.1245
     33  CA        46.5780   -4.1840   -9.2310 C.3    54  LYS54       0.1561
     34  C         47.3810   -3.6800  -10.4230 C.2    54  LYS54       0.2260
     35  O         48.3150   -4.3420  -10.8690 O.2    54  LYS54      -0.2867
     36  CB        45.4990   -5.1500   -9.7170 C.3    54  LYS54       0.0271
     37  CG        45.0890   -6.2090   -8.7090 C.3    54  LYS54       0.0035
     38  CD        43.7770   -6.8760   -9.1060 C.3    54  LYS54       0.0206
     39  CE        43.9440   -7.7970  -10.2940 C.3    54  LYS54       0.1093
     40  NZ        42.6570   -8.4280  -10.6960 N.3    54  LYS54      -0.1314
     41  N         52.8540   -3.5860   -7.0710 N.3    59  PHE59      -0.1227
     42  CA        51.7840   -3.9960   -6.1600 C.3    59  PHE59       0.1736
     43  C         51.4190   -5.4800   -6.2950 C.2    59  PHE59       0.2595
     44  O         51.5530   -6.2400   -5.3290 O.2    59  PHE59      -0.2718
     45  CB        50.5490   -3.1060   -6.3150 C.3    59  PHE59       0.0547
     46  CG        49.4670   -3.3990   -5.3130 C.ar   59  PHE59      -0.0202
     47  CD1       49.5480   -2.8970   -4.0180 C.ar   59  PHE59      -0.0042
     48  CD2       48.3710   -4.1800   -5.6620 C.ar   59  PHE59      -0.0042
     49  CE1       48.5550   -3.1690   -3.0910 C.ar   59  PHE59      -0.0003
     50  CE2       47.3720   -4.4540   -4.7420 C.ar   59  PHE59      -0.0003
     51  CZ        47.4590   -3.9510   -3.4570 C.ar   59  PHE59      -0.0000
     52  N         50.9990   -5.8910   -7.4950 N.am   60  ARG60      -0.1980
     53  CA        50.6550   -7.2950   -7.7820 C.3    60  ARG60       0.1597
     54  C         51.7850   -8.2890   -7.4720 C.2    60  ARG60       0.2287
     55  O         51.5830   -9.5030   -7.5460 O.2    60  ARG60      -0.2864
     56  CB        50.1730   -7.4500   -9.2380 C.3    60  ARG60       0.0334
     57  CG        49.4670   -8.7480   -9.5530 C.3    60  ARG60       0.0492
     58  CD        49.3410   -8.9270  -11.0590 C.3    60  ARG60       0.2205
     59  NE        48.9740   -7.6830  -11.7370 N.pl3  60  ARG60      -0.0865
     60  CZ        49.7950   -6.9840  -12.5190 C.cat  60  ARG60       0.5346
     61  NH1       51.0380   -7.4020  -12.7270 N.pl3  60  ARG60       0.1354
     62  NH2       49.3750   -5.8620  -13.0900 N.pl3  60  ARG60       0.1354
     63  N         49.9520  -11.8540   -1.4980 N.3    64  LEU64      -0.1245
     64  CA        48.5210  -11.6450   -1.6830 C.3    64  LEU64       0.1561
     65  C         47.8550  -11.1930   -0.3810 C.2    64  LEU64       0.2260
     66  O         46.9610  -10.3420   -0.4010 O.2    64  LEU64      -0.2867
     67  CB        47.8690  -12.9170   -2.2300 C.3    64  LEU64       0.0270
     68  CG        46.4460  -12.8670   -2.7990 C.3    64  LEU64       0.0019
     69  CD1       46.2420  -11.6970   -3.7710 C.3    64  LEU64       0.0001
     70  CD2       46.1160  -14.1900   -3.4690 C.3    64  LEU64       0.0001
     71  N         48.7170   -7.5430   -0.1210 N.3    67  GLN67      -0.1231
     72  CA        47.8160   -6.8250   -1.0310 C.3    67  GLN67       0.1698
     73  C         46.4750   -6.5920   -0.3560 C.2    67  GLN67       0.2592
     74  O         45.8840   -5.5080   -0.4650 O.2    67  GLN67      -0.2718
     75  CB        47.6140   -7.5980   -2.3350 C.3    67  GLN67       0.0381
     76  CG        48.7930   -7.5120   -3.2880 C.3    67  GLN67       0.0905
     77  CD        48.7360   -8.5330   -4.4260 C.2    67  GLN67       0.2608
     78  OE1       47.7480   -8.6060   -5.1600 O.2    67  GLN67      -0.2717
     79  NE2       49.8110   -9.3090   -4.5880 N.am   67  GLN67      -0.0878
     80  N         46.0110   -7.6140    0.3580 N.am   68  MET68      -0.1979
     81  CA        44.7800   -7.5150    1.1240 C.3    68  MET68       0.1605
     82  C         44.9030   -6.5040    2.2550 C.2    68  MET68       0.2287
     83  O         44.0840   -5.5990    2.3640 O.2    68  MET68      -0.2864
     84  CB        44.3650   -8.8850    1.6640 C.3    68  MET68       0.0413
     85  CG        43.7120   -9.7730    0.6180 C.3    68  MET68       0.0598
     86  SD        43.0730  -11.3230    1.2870 S.3    68  MET68      -0.1393
     87  CE        41.7070  -10.7350    2.3000 C.3    68  MET68       0.0692
     88  N         44.9350   -2.7960    1.1530 N.3    71  LEU71      -0.1231
     89  CA        43.6300   -2.3110    0.7420 C.3    71  LEU71       0.1693
     90  C         42.6560   -2.1990    1.9060 C.2    71  LEU71       0.2591
     91  O         41.8670   -1.2620    1.9620 O.2    71  LEU71      -0.2718
     92  CB        43.0690   -3.1520   -0.4040 C.3    71  LEU71       0.0284
     93  CG        43.6920   -2.6900   -1.7220 C.3    71  LEU71       0.0019
     94  CD1       43.7210   -3.7900   -2.7640 C.3    71  LEU71       0.0001
     95  CD2       42.9870   -1.4370   -2.2430 C.3    71  LEU71       0.0001
     96  N         42.7350   -3.1330    2.8480 N.am   72  GLN72      -0.1979
     97  CA        41.9170   -3.0750    4.0620 C.3    72  GLN72       0.1601
     98  C         42.2880   -1.9010    4.9720 C.2    72  GLN72       0.2287
     99  O         41.4050   -1.2400    5.5330 O.2    72  GLN72      -0.2864
    100  CB        41.9720   -4.3970    4.8260 C.3    72  GLN72       0.0394
    101  CG        41.0960   -5.4900    4.2110 C.3    72  GLN72       0.0908
    102  CD        41.4550   -6.8850    4.6960 C.2    72  GLN72       0.2608
    103  OE1       42.5970   -7.1500    5.0920 O.2    72  GLN72      -0.2717
    104  NE2       40.4790   -7.7930    4.6570 N.am   72  GLN72      -0.0878
    105  N         27.8960   -5.5480    1.0490 N.3   218  GLU218     -0.1231
    106  CA        28.7680   -6.6090    1.5480 C.3   218  GLU218      0.1699
    107  C         30.2440   -6.2550    1.3920 C.2   218  GLU218      0.2592
    108  O         31.0420   -6.4780    2.3090 O.2   218  GLU218     -0.2718
    109  CB        28.4630   -7.9470    0.8710 C.3   218  GLU218      0.0402
    110  CG        27.2100   -8.6380    1.3950 C.3   218  GLU218      0.1161
    111  CD        27.3310  -10.1550    1.3920 C.2   218  GLU218      0.3649
    112  OE1       28.3920  -10.6740    0.9720 O.co2 218  GLU218     -0.2457
    113  OE2       26.3670  -10.8320    1.8190 O.co2 218  GLU218     -0.2457
    114  N         30.5970   -5.6870    0.2390 N.am  219  MET219     -0.1979
    115  CA        31.9830   -5.3270   -0.0430 C.3   219  MET219      0.1605
    116  C         32.6240   -4.5550    1.1190 C.2   219  MET219      0.2287
    117  O         33.7490   -4.8540    1.5200 O.2   219  MET219     -0.2864
    118  CB        32.0840   -4.5290   -1.3500 C.3   219  MET219      0.0413
    119  CG        33.5180   -4.2050   -1.7720 C.3   219  MET219      0.0598
    120  SD        34.4630   -5.7020   -2.1380 S.3   219  MET219     -0.1393
    121  CE        36.0760   -5.2940   -1.4770 C.3   219  MET219      0.0692
    122  N         32.4540   -6.6430    4.9170 N.3   222  GLU222     -0.1231
    123  CA        33.4880   -7.6410    5.1850 C.3   222  GLU222      0.1699
    124  C         34.7420   -6.9480    5.7070 C.2   222  GLU222      0.2592
    125  O         35.3450   -7.4140    6.6750 O.2   222  GLU222     -0.2718
    126  CB        33.7930   -8.4900    3.9360 C.3   222  GLU222      0.0402
    127  CG        32.7010   -9.3920    3.4970 C.3   222  GLU222      0.1161
    128  CD        32.9000   -9.9990    2.1220 C.2   222  GLU222      0.3649
    129  OE1       33.8630   -9.6380    1.4000 O.co2 222  GLU222     -0.2457
    130  OE2       32.0770  -10.7630    1.6680 O.co2 222  GLU222     -0.2457
    131  N         35.1000   -5.8230    5.0820 N.am  223  ILE223     -0.1980
    132  CA        36.2830   -5.0420    5.4660 C.3   223  ILE223      0.1595
    133  C         36.1090   -4.3790    6.8330 C.2   223  ILE223      0.2287
    134  O         37.0170   -4.4250    7.6630 O.2   223  ILE223     -0.2864
    135  CB        36.6590   -3.9710    4.4110 C.3   223  ILE223      0.0276
    136  CG1       36.7170   -4.5830    3.0100 C.3   223  ILE223      0.0022
    137  CG2       38.0030   -3.3110    4.7620 C.3   223  ILE223      0.0022
    138  CD1       36.8500   -3.5650    1.8950 C.3   223  ILE223      0.0001
    139  N         36.4820   -6.9860    9.2140 N.3   226  ASN226     -0.1240
    140  CA        37.8570   -7.4710    9.1640 C.3   226  ASN226      0.1653
    141  C         38.8630   -6.5030    9.8000 C.2   226  ASN226      0.2266
    142  O         40.0280   -6.8590    9.9990 O.2   226  ASN226     -0.2867
    143  CB        38.2480   -7.7600    7.7080 C.3   226  ASN226      0.1155
    144  CG        39.5660   -8.5090    7.5890 C.2   226  ASN226      0.2627
    145  OD1       39.6020   -9.7440    7.6320 O.2   226  ASN226     -0.2716
    146  ND2       40.6620   -7.7600    7.4500 N.am  226  ASN226     -0.0877
@<TRIPOS>BOND
     1    62    60    1
     2    61    60    1
     3    60    59    2
     4    59    58    1
     5    30    29    1
     6    30    31    1
     7    58    57    1
     8    29    28    1
     9    27    28    1
    10    27    24    1
    11    26    25    2
    12    35    34    2
    13    40    39    1
    14    34    33    1
    15    39    38    1
    16    25    24    1
    17    24    23    1
    18    36    33    1
    19    36    37    1
    20    57    56    1
    21    56    53    1
    22    33    32    1
    23    38    37    1
    24    23    18   am
    25    14    12    1
    26    11    10    2
    27    53    52    1
    28    53    54    1
    29    19    18    2
    30    18    17    1
    31    55    54    2
    32    52    43   am
    33    10     9    1
    34    41    42    1
    35    12     9    1
    36    12    13    1
    37    45    42    1
    38    45    46    1
    39    43    42    1
    40    43    44    2
    41    17    16    1
    42    17    20    1
    43     9     8    1
    44    21    20    1
    45    20    22    1
    46    15    13    1
    47    48    46   ar
    48    48    50   ar
    49    46    47   ar
    50     8     3   am
    51    78    77    2
    52    50    51   ar
    53     4     3    2
    54    79    77   am
    55     3     2    1
    56    77    76    1
    57    47    49   ar
    58     1     2    1
    59    69    68    1
    60    70    68    1
    61    51    49   ar
    62     2     5    1
    63    76    75    1
    64    68    67    1
    65    94    93    1
    66    75    72    1
    67    95    93    1
    68    67    64    1
    69   120   119    1
    70   120   121    1
    71     5     6    1
    72     5     7    1
    73   119   118    1
    74    93    92    1
    75    64    63    1
    76    64    65    1
    77   118   115    1
    78    72    73    1
    79    72    71    1
    80    74    73    2
    81    92    89    1
    82    66    65    2
    83    73    80   am
    84   115   114    1
    85   115   116    1
    86   114   107   am
    87    80    81    1
    88    85    86    1
    89    85    84    1
    90    89    88    1
    91    89    90    1
    92   109   110    1
    93   109   106    1
    94   112   111   ar
    95   105   106    1
    96   116   117    2
    97    81    84    1
    98    81    82    1
    99    86    87    1
   100   111   110    1
   101   111   113   ar
   102   107   106    1
   103   107   108    2
   104   129   128   ar
   105   130   128   ar
   106   138   136    1
   107    90    91    2
   108    90    96   am
   109   128   127    1
   110    82    83    2
   111    96    97    1
   112   136   135    1
   113   127   126    1
   114   126   123    1
   115    97   100    1
   116    97    98    1
   117   101   102    1
   118   101   100    1
   119   135   137    1
   120   135   132    1
   121   104   102   am
   122   102   103    2
   123   122   123    1
   124    98    99    2
   125   131   132    1
   126   131   124   am
   127   123   124    1
   128   132   133    1
   129   124   125    2
   130   133   134    2
   131   146   144   am
   132   144   145    2
   133   144   143    1
   134   143   140    1
   135   140   139    1
   136   140   141    1
   137   141   142    2
