@<TRIPOS>MOLECULE
tmp/3cldA01.pdb
 217 203 0 0 0
SMALL
GASTEIGER

@<TRIPOS>ATOM
      1  N         20.9400    9.5640    2.2140 N.3    34  ILE34      -0.1231
      2  CA        22.2140    9.9680    1.6430 C.3    34  ILE34       0.1692
      3  C         23.3390    9.0340    2.1050 C.2    34  ILE34       0.2591
      4  O         24.1050    8.5430    1.2810 O.2    34  ILE34      -0.2718
      5  CB        22.5270   11.4650    1.9250 C.3    34  ILE34       0.0266
      6  CG1       21.5150   12.3520    1.1880 C.3    34  ILE34       0.0019
      7  CG2       23.9640   11.8220    1.5060 C.3    34  ILE34       0.0020
      8  CD1       21.5270   13.7970    1.6160 C.3    34  ILE34       0.0001
      9  N         23.4040    8.7670    3.4060 N.am   35  MET35      -0.1979
     10  CA        24.4170    7.8730    3.9690 C.3    35  MET35       0.1605
     11  C         24.4240    6.4770    3.3600 C.2    35  MET35       0.2287
     12  O         25.4940    5.9300    3.0680 O.2    35  MET35      -0.2864
     13  CB        24.2600    7.7720    5.4780 C.3    35  MET35       0.0413
     14  CG        24.8740    8.9310    6.1990 C.3    35  MET35       0.0598
     15  SD        24.3910    8.9550    7.9200 S.3    35  MET35      -0.1393
     16  CE        25.3890   10.3270    8.5200 C.3    35  MET35       0.0692
     17  N         25.4530    6.6080   -0.1480 N.3    38  LEU38      -0.1231
     18  CA        26.8960    6.8050   -0.0900 C.3    38  LEU38       0.1693
     19  C         27.6420    5.5250    0.2490 C.2    38  LEU38       0.2592
     20  O         28.7240    5.2890   -0.2850 O.2    38  LEU38      -0.2718
     21  CB        27.2770    7.9140    0.8960 C.3    38  LEU38       0.0284
     22  CG        26.9400    9.3600    0.5050 C.3    38  LEU38       0.0019
     23  CD1       27.5680   10.3440    1.4740 C.3    38  LEU38       0.0001
     24  CD2       27.3630    9.6650   -0.9170 C.3    38  LEU38       0.0001
     25  N         27.0760    4.7020    1.1310 N.am   39  ASN39      -0.1974
     26  CA        27.6870    3.4120    1.4530 C.3    39  ASN39       0.1688
     27  C         27.7550    2.4920    0.2430 C.2    39  ASN39       0.2292
     28  O         28.8030    1.8980   -0.0320 O.2    39  ASN39      -0.2864
     29  CB        26.9740    2.7270    2.6180 C.3    39  ASN39       0.1181
     30  CG        27.4320    3.2510    3.9620 C.2    39  ASN39       0.2629
     31  OD1       28.5970    3.6180    4.1300 O.2    39  ASN39      -0.2716
     32  ND2       26.5150    3.2990    4.9260 N.am   39  ASN39      -0.0877
     33  N         27.6640    3.4350   -2.9600 N.3    41  LEU41      -0.1231
     34  CA        28.6950    4.0370   -3.7980 C.3    41  LEU41       0.1693
     35  C         30.0890    3.6600   -3.2850 C.2    41  LEU41       0.2592
     36  O         30.9780    3.3030   -4.0650 O.2    41  LEU41      -0.2718
     37  CB        28.5350    5.5600   -3.8410 C.3    41  LEU41       0.0284
     38  CG        29.4870    6.3230   -4.7660 C.3    41  LEU41       0.0019
     39  CD1       29.1720    6.0330   -6.2240 C.3    41  LEU41       0.0001
     40  CD2       29.4310    7.8160   -4.4970 C.3    41  LEU41       0.0001
     41  N         30.2680    3.7270   -1.9660 N.am   42  GLY42      -0.1957
     42  CA        31.5300    3.3720   -1.3420 C.3    42  GLY42       0.1869
     43  C         31.9930    1.9900   -1.7540 C.2    42  GLY42       0.2309
     44  O         33.1790    1.7890   -2.0440 O.2    42  GLY42      -0.2863
     45  N         33.1460    1.8830   -5.2450 N.3    45  GLN45      -0.1245
     46  CA        34.3820    2.6360   -5.3090 C.3    45  GLN45       0.1566
     47  C         35.5670    1.7920   -4.8610 C.2    45  GLN45       0.2260
     48  O         36.6640    1.9470   -5.3830 O.2    45  GLN45      -0.2867
     49  CB        34.2810    3.9110   -4.4840 C.3    45  GLN45       0.0367
     50  CG        33.5760    5.0540   -5.2030 C.3    45  GLN45       0.0905
     51  CD        33.5740    6.3490   -4.3970 C.2    45  GLN45       0.2608
     52  OE1       32.9710    7.3510   -4.8070 O.2    45  GLN45      -0.2717
     53  NE2       34.2450    6.3350   -3.2430 N.am   45  GLN45      -0.0878
     54  N         41.5870    1.7460    2.4470 N.3    75  TRP75      -0.1227
     55  CA        40.4010    2.0630    1.6500 C.3    75  TRP75       0.1737
     56  C         39.8400    3.4480    1.9810 C.2    75  TRP75       0.2595
     57  O         39.5940    4.2320    1.0680 O.2    75  TRP75      -0.2718
     58  CB        39.3260    0.9700    1.7210 C.3    75  TRP75       0.0564
     59  CG        38.5650    0.9180    3.0040 C.ar   75  TRP75       0.0003
     60  CD1       38.9610    0.3280    4.1590 C.ar   75  TRP75       0.0946
     61  CD2       37.2690    1.4730    3.2610 C.ar   75  TRP75       0.0152
     62  NE1       38.0000    0.4770    5.1310 N.ar   75  TRP75      -0.2442
     63  CE2       36.9490    1.1770    4.6090 C.ar   75  TRP75       0.0810
     64  CE3       36.3440    2.1900    2.4850 C.ar   75  TRP75       0.0012
     65  CZ2       35.7450    1.5750    5.2030 C.ar   75  TRP75       0.0191
     66  CZ3       35.1470    2.5870    3.0760 C.ar   75  TRP75       0.0001
     67  CH2       34.8600    2.2780    4.4250 C.ar   75  TRP75       0.0015
     68  N         39.6900    3.7680    3.2670 N.am   76  MET76      -0.1979
     69  CA        39.1440    5.0680    3.6640 C.3    76  MET76       0.1605
     70  C         40.0130    6.2480    3.2230 C.2    76  MET76       0.2287
     71  O         39.4730    7.2760    2.7980 O.2    76  MET76      -0.2864
     72  CB        38.8480    5.1490    5.1700 C.3    76  MET76       0.0413
     73  CG        37.9750    6.3580    5.5750 C.3    76  MET76       0.0598
     74  SD        36.3010    6.3680    4.8490 S.3    76  MET76      -0.1393
     75  CE        35.3700    5.5080    6.1180 C.3    76  MET76       0.0692
     76  N         39.4150    6.7740   -0.5060 N.3    79  MET79      -0.1230
     77  CA        38.0770    7.2820   -0.8160 C.3    79  MET79       0.1702
     78  C         37.9950    8.7610   -0.4500 C.2    79  MET79       0.2592
     79  O         37.5310    9.5890   -1.2390 O.2    79  MET79      -0.2718
     80  CB        36.9880    6.4930   -0.0750 C.3    79  MET79       0.0401
     81  CG        36.8770    5.0080   -0.3840 C.3    79  MET79       0.0596
     82  SD        36.7950    4.6380   -2.1450 S.3    79  MET79      -0.1393
     83  CE        38.5150    4.3190   -2.5660 C.3    79  MET79       0.0692
     84  N         38.4650    9.0770    0.7540 N.am   80  ALA80      -0.1980
     85  CA        38.4400   10.4350    1.2660 C.3    80  ALA80       0.1597
     86  C         39.3180   11.3490    0.4190 C.2    80  ALA80       0.2287
     87  O         38.9450   12.4850    0.1470 O.2    80  ALA80      -0.2864
     88  CB        38.8770   10.4570    2.7140 C.3    80  ALA80       0.0319
     89  N         37.6500   11.9340   -2.9640 N.3    83  LEU83      -0.1245
     90  CA        36.5560   12.8370   -2.6620 C.3    83  LEU83       0.1561
     91  C         37.0580   14.2780   -2.5700 C.2    83  LEU83       0.2260
     92  O         36.4970   15.1770   -3.1980 O.2    83  LEU83      -0.2867
     93  CB        35.8710   12.4320   -1.3550 C.3    83  LEU83       0.0270
     94  CG        34.7390   13.3300   -0.8430 C.3    83  LEU83       0.0019
     95  CD1       33.5970   13.4340   -1.8570 C.3    83  LEU83       0.0001
     96  CD2       34.2230   12.8320    0.4930 C.3    83  LEU83       0.0001
     97  N         37.8350   15.4750   -6.1050 N.3    86  ARG86      -0.1245
     98  CA        36.5900   15.7470   -6.8340 C.3    86  ARG86       0.1563
     99  C         35.9330   17.0480   -6.3710 C.2    86  ARG86       0.2260
    100  O         35.5020   17.8640   -7.1910 O.2    86  ARG86      -0.2867
    101  CB        35.6010   14.5820   -6.7000 C.3    86  ARG86       0.0307
    102  CG        36.0020   13.3190   -7.4520 C.3    86  ARG86       0.0489
    103  CD        34.8660   12.3040   -7.5360 C.3    86  ARG86       0.2205
    104  NE        34.3510   11.9070   -6.2270 N.pl3  86  ARG86      -0.0865
    105  CZ        34.8730   10.9480   -5.4610 C.cat  86  ARG86       0.5346
    106  NH1       35.9470   10.2670   -5.8550 N.pl3  86  ARG86       0.1354
    107  NH2       34.3220   10.6670   -4.2870 N.pl3  86  ARG86       0.1354
    108  N         30.4760   13.7080   -4.1070 N.3    95  PHE95      -0.1241
    109  CA        30.5490   12.2700   -3.9720 C.3    95  PHE95       0.1605
    110  C         30.3990   11.6220   -5.3410 C.2    95  PHE95       0.2264
    111  O         31.0980   10.6480   -5.6560 O.2    95  PHE95      -0.2867
    112  CB        29.5040   11.7730   -2.9810 C.3    95  PHE95       0.0534
    113  CG        29.8230   12.1120   -1.5540 C.ar   95  PHE95      -0.0203
    114  CD1       30.6220   11.2610   -0.7870 C.ar   95  PHE95      -0.0042
    115  CD2       29.3360   13.2830   -0.9760 C.ar   95  PHE95      -0.0042
    116  CE1       30.9220   11.5660    0.5360 C.ar   95  PHE95      -0.0003
    117  CE2       29.6330   13.6010    0.3480 C.ar   95  PHE95      -0.0003
    118  CZ        30.4260   12.7420    1.1080 C.ar   95  PHE95      -0.0000
    119  N         26.7750   17.1710   -2.3920 N.3   101  ILE101     -0.1245
    120  CA        26.2690   17.7860   -1.1810 C.3   101  ILE101      0.1561
    121  C         26.5160   19.2800   -1.3060 C.2   101  ILE101      0.2260
    122  O         27.6550   19.7550   -1.2180 O.2   101  ILE101     -0.2867
    123  CB        26.8970   17.2070    0.1070 C.3   101  ILE101      0.0252
    124  CG1       26.7180   15.6830    0.1660 C.3   101  ILE101      0.0019
    125  CG2       26.2860   17.8600    1.3400 C.3   101  ILE101      0.0019
    126  CD1       25.2650   15.1780    0.0670 C.3   101  ILE101      0.0001
    127  N         24.6360   16.0890    9.2200 N.3   111  MET111     -0.1245
    128  CA        25.3190   16.0850    7.9230 C.3   111  MET111      0.1570
    129  C         26.7260   16.6960    7.9670 C.2   111  MET111      0.2261
    130  O         27.7140   15.9900    7.7680 O.2   111  MET111     -0.2867
    131  CB        24.4450   16.7650    6.8560 C.3   111  MET111      0.0387
    132  CG        24.9190   16.5820    5.4130 C.3   111  MET111      0.0595
    133  SD        24.9320   14.8740    4.8240 S.3   111  MET111     -0.1393
    134  CE        23.1810   14.4800    4.8690 C.3   111  MET111      0.0692
    135  N         29.9660   15.2510   10.0160 N.3   114  GLN114     -0.1231
    136  CA        30.9590   14.3500    9.4290 C.3   114  GLN114      0.1698
    137  C         31.6180   15.0250    8.2500 C.2   114  GLN114      0.2592
    138  O         32.8160   14.8560    8.0210 O.2   114  GLN114     -0.2718
    139  CB        30.3260   13.0310    8.9630 C.3   114  GLN114      0.0381
    140  CG        29.3990   12.3650    9.9750 C.3   114  GLN114      0.0905
    141  CD        29.9700   12.3460   11.3870 C.2   114  GLN114      0.2608
    142  OE1       31.1130   11.9320   11.6040 O.2   114  GLN114     -0.2717
    143  NE2       29.1730   12.8010   12.3550 N.am  114  GLN114     -0.0878
    144  N         30.8290   15.8010    7.5120 N.am  115  CYS115     -0.1970
    145  CA        31.2980   16.4620    6.2950 C.3   115  CYS115      0.1712
    146  C         32.4150   17.4690    6.5040 C.2   115  CYS115      0.2296
    147  O         33.2030   17.7070    5.5920 O.2   115  CYS115     -0.2864
    148  CB        30.1400   17.1110    5.5540 C.3   115  CYS115      0.0983
    149  SG        29.0260   15.9120    4.8190 S.3   115  CYS115     -0.0798
    150  N         35.7440   15.7430    5.7120 N.3   118  MET118     -0.1245
    151  CA        35.9610   15.5180    4.3020 C.3   118  MET118      0.1570
    152  C         36.2140   16.8390    3.5880 C.2   118  MET118      0.2261
    153  O         37.0190   16.9040    2.6540 O.2   118  MET118     -0.2867
    154  CB        34.7890   14.7440    3.7140 C.3   118  MET118      0.0387
    155  CG        34.7190   13.3300    4.2700 C.3   118  MET118      0.0595
    156  SD        33.1700   12.4500    3.9860 S.3   118  MET118     -0.1393
    157  CE        32.0380   13.2560    5.1190 C.3   118  MET118      0.0692
    158  N         36.5920    9.7210   10.3570 N.3   199  LEU199     -0.1245
    159  CA        35.6680    9.1240    9.4000 C.3   199  LEU199      0.1561
    160  C         35.4090    7.6490    9.7130 C.2   199  LEU199      0.2260
    161  O         34.2690    7.1850    9.6160 O.2   199  LEU199     -0.2867
    162  CB        36.1760    9.2950    7.9600 C.3   199  LEU199      0.0270
    163  CG        36.3510   10.6980    7.3670 C.3   199  LEU199      0.0019
    164  CD1       36.8490   10.5940    5.9200 C.3   199  LEU199      0.0001
    165  CD2       35.0640   11.5230    7.4550 C.3   199  LEU199      0.0001
    166  N         33.1300    7.2620   13.0070 N.3   202  TYR202     -0.1227
    167  CA        31.6910    7.3730   12.7760 C.3   202  TYR202      0.1736
    168  C         31.1480    6.2180   11.9550 C.2   202  TYR202      0.2595
    169  O         30.0300    5.7560   12.1910 O.2   202  TYR202     -0.2718
    170  CB        31.3020    8.6990   12.1260 C.3   202  TYR202      0.0548
    171  CG        29.8050    8.9410   12.1730 C.ar  202  TYR202     -0.0200
    172  CD1       29.1760    9.3220   13.3660 C.ar  202  TYR202     -0.0009
    173  CD2       29.0150    8.7670   11.0360 C.ar  202  TYR202     -0.0009
    174  CE1       27.8050    9.5350   13.4190 C.ar  202  TYR202      0.0417
    175  CE2       27.6410    8.9780   11.0790 C.ar  202  TYR202      0.0417
    176  CZ        27.0440    9.3610   12.2710 C.ar  202  TYR202      0.1957
    177  OH        25.6840    9.5670   12.3170 O.3   202  TYR202     -0.2866
    178  N         31.9460    5.7610   10.9930 N.am  203  CYS203     -0.1970
    179  CA        31.5800    4.6320   10.1550 C.3   203  CYS203      0.1712
    180  C         31.3480    3.3690   10.9790 C.2   203  CYS203      0.2296
    181  O         30.2930    2.7420   10.8590 O.2   203  CYS203     -0.2864
    182  CB        32.6490    4.3910    9.0980 C.3   203  CYS203      0.0983
    183  SG        32.3660    2.9080    8.1310 S.3   203  CYS203     -0.0798
    184  N         28.3030    3.6520   13.4650 N.3   206  THR206     -0.1218
    185  CA        27.0590    3.5040   12.7150 C.3   206  THR206      0.1862
    186  C         26.8510    2.0540   12.3030 C.2   206  THR206      0.2287
    187  O         25.7560    1.5110   12.4500 O.2   206  THR206     -0.2866
    188  CB        27.0470    4.3760   11.4510 C.3   206  THR206      0.1770
    189  OG1       27.4370    5.7120   11.7820 O.3   206  THR206     -0.2211
    190  CG2       25.6600    4.4020   10.8430 C.3   206  THR206      0.0375
    191  N         20.9700    1.9960    9.0640 N.3   214  ILE214     -0.1245
    192  CA        21.7240    2.3980    7.8670 C.3   214  ILE214      0.1561
    193  C         22.4430    1.2050    7.2520 C.2   214  ILE214      0.2260
    194  O         23.2710    0.5650    7.9030 O.2   214  ILE214     -0.2867
    195  CB        22.7190    3.5520    8.1360 C.3   214  ILE214      0.0252
    196  CG1       21.9600    4.8030    8.5870 C.3   214  ILE214      0.0019
    197  CG2       23.5240    3.8590    6.8810 C.3   214  ILE214      0.0019
    198  CD1       22.8350    5.9660    8.9750 C.3   214  ILE214      0.0001
    199  N         24.7620   -1.2040    4.7100 N.3   216  PHE216     -0.1241
    200  CA        26.1020   -1.2860    4.1330 C.3   216  PHE216      0.1605
    201  C         26.1510   -2.4180    3.1050 C.2   216  PHE216      0.2264
    202  O         25.6140   -3.4990    3.3510 O.2   216  PHE216     -0.2867
    203  CB        27.1350   -1.5760    5.2170 C.3   216  PHE216      0.0534
    204  CG        27.4140   -0.4170    6.1270 C.ar  216  PHE216     -0.0203
    205  CD1       26.5320   -0.0880    7.1550 C.ar  216  PHE216     -0.0042
    206  CD2       28.5780    0.3290    5.9760 C.ar  216  PHE216     -0.0042
    207  CE1       26.7940    0.9780    8.0050 C.ar  216  PHE216     -0.0003
    208  CE2       28.8560    1.3920    6.8210 C.ar  216  PHE216     -0.0003
    209  CZ        27.9600    1.7180    7.8390 C.ar  216  PHE216     -0.0000
    210  N         31.8980   -3.5770    1.6590 N.3   220  LEU220     -0.1245
    211  CA        32.3900   -2.7650    2.7690 C.3   220  LEU220      0.1561
    212  C         32.2540   -3.4650    4.1120 C.2   220  LEU220      0.2260
    213  O         33.1120   -3.3150    4.9810 O.2   220  LEU220     -0.2867
    214  CB        31.6620   -1.4240    2.8200 C.3   220  LEU220      0.0270
    215  CG        31.9940   -0.4040    1.7330 C.3   220  LEU220      0.0019
    216  CD1       31.2730    0.9020    2.0000 C.3   220  LEU220      0.0001
    217  CD2       33.4820   -0.1660    1.6810 C.3   220  LEU220      0.0001
@<TRIPOS>BOND
     1   103   102    1
     2   103   104    1
     3   102   101    1
     4   100    99    2
     5    98   101    1
     6    98    99    1
     7    98    97    1
     8   104   105    2
     9    39    38    1
    10   106   105    1
    11   111   110    2
    12   105   107    1
    13    48    47    2
    14   110   109    1
    15    46    45    1
    16    46    47    1
    17    46    49    1
    18    50    49    1
    19    50    51    1
    20    52    51    2
    21    38    40    1
    22    38    37    1
    23    51    53   am
    24   108   109    1
    25    36    35    2
    26   109   112    1
    27    37    34    1
    28    34    35    1
    29    34    33    1
    30    35    41   am
    31    92    91    2
    32   112   113    1
    33    89    90    1
    34    90    91    1
    35    90    93    1
    36    83    82    1
    37   119   120    1
    38    82    81    1
    39    44    43    2
    40    41    42    1
    41    95    94    1
    42    43    42    1
    43   113   115   ar
    44   113   114   ar
    45    93    94    1
    46   121   122    2
    47   121   120    1
    48    79    78    2
    49   120   123    1
    50   115   117   ar
    51    24    22    1
    52    94    96    1
    53    77    76    1
    54    77    78    1
    55    77    80    1
    56   114   116   ar
    57    78    84   am
    58    81    80    1
    59    20    19    2
    60    17    18    1
    61    18    19    1
    62    18    21    1
    63    28    27    2
    64   126   124    1
    65   123   124    1
    66   123   125    1
    67    87    86    2
    68    27    26    1
    69    19    25   am
    70   117   118   ar
    71    86    85    1
    72    22    21    1
    73    22    23    1
    74   116   118   ar
    75    84    85    1
    76    57    56    2
    77    25    26    1
    78     6     8    1
    79     6     5    1
    80    85    88    1
    81     4     3    2
    82    26    29    1
    83     7     5    1
    84     2     5    1
    85     2     3    1
    86     2     1    1
    87    55    58    1
    88    55    56    1
    89    55    54    1
    90   210   211    1
    91   217   215    1
    92    58    59    1
    93   215   216    1
    94   215   214    1
    95    56    68   am
    96     3     9   am
    97    64    66   ar
    98    64    61   ar
    99    29    30    1
   100   153   152    2
   101   211   214    1
   102   211   212    1
   103    71    70    2
   104    59    61   ar
   105    59    60   ar
   106    12    11    2
   107    66    67   ar
   108   201   202    2
   109   201   200    1
   110    70    69    1
   111    61    63   ar
   112    68    69    1
   113    11    10    1
   114     9    10    1
   115   152   151    1
   116    69    72    1
   117   154   155    1
   118   154   151    1
   119    30    31    2
   120    30    32   am
   121    10    13    1
   122   156   155    1
   123   156   157    1
   124   212   213    2
   125   200   199    1
   126   200   203    1
   127    60    62   ar
   128   151   150    1
   129    67    65   ar
   130    63    62   ar
   131    63    65   ar
   132   149   148    1
   133   133   134    1
   134   133   132    1
   135    74    73    1
   136    74    75    1
   137    72    73    1
   138   203   204    1
   139   132   131    1
   140    13    14    1
   141   148   145    1
   142   147   146    2
   143   164   163    1
   144   206   204   ar
   145   206   208   ar
   146   204   205   ar
   147    14    15    1
   148   145   146    1
   149   145   144    1
   150   208   209   ar
   151   131   128    1
   152   197   195    1
   153   205   207   ar
   154   193   192    1
   155   193   194    2
   156   163   165    1
   157   163   162    1
   158   144   137   am
   159   130   129    2
   160   209   207   ar
   161   192   195    1
   162   192   191    1
   163    15    16    1
   164   128   129    1
   165   128   127    1
   166   162   159    1
   167   138   137    2
   168   183   182    1
   169   195   196    1
   170   137   136    1
   171   196   198    1
   172   139   136    1
   173   139   140    1
   174   182   179    1
   175   159   160    1
   176   159   158    1
   177   136   135    1
   178   161   160    2
   179   140   141    1
   180   179   180    1
   181   179   178    1
   182   190   188    1
   183   181   180    2
   184   178   168   am
   185   173   175   ar
   186   173   171   ar
   187   175   176   ar
   188   141   142    2
   189   141   143   am
   190   188   189    1
   191   188   185    1
   192   168   169    2
   193   168   167    1
   194   170   171    1
   195   170   167    1
   196   171   172   ar
   197   176   177    1
   198   176   174   ar
   199   186   187    2
   200   186   185    1
   201   185   184    1
   202   167   166    1
   203   172   174   ar
