@<TRIPOS>MOLECULE
tmp/3clrB00.pdb
 198 191 0 0 0
SMALL
GASTEIGER

@<TRIPOS>ATOM
      1  N         78.3320   62.8920    3.6150 N.3    97  VAL97      -0.1245
      2  CA        79.6560   62.3130    3.3780 C.3    97  VAL97       0.1561
      3  C         80.4790   62.2490    4.6780 C.2    97  VAL97       0.2260
      4  O         81.1330   61.2380    4.9960 O.2    97  VAL97      -0.2867
      5  CB        80.4100   63.0580    2.2220 C.3    97  VAL97       0.0252
      6  CG1       81.8320   62.5570    2.0580 C.3    97  VAL97       0.0019
      7  CG2       79.6610   62.8710    0.9170 C.3    97  VAL97       0.0019
      8  N         79.2720   59.4810    6.8850 N.3   100  LEU100     -0.1245
      9  CA        79.7390   58.1890    6.3500 C.3   100  LEU100      0.1561
     10  C         81.1030   57.7700    6.8850 C.2   100  LEU100      0.2260
     11  O         81.3980   56.5850    6.9670 O.2   100  LEU100     -0.2867
     12  CB        79.7790   58.1790    4.8270 C.3   100  LEU100      0.0270
     13  CG        78.4520   58.2860    4.0700 C.3   100  LEU100      0.0019
     14  CD1       78.5630   57.7190    2.6510 C.3   100  LEU100      0.0001
     15  CD2       77.2730   57.7810    4.7910 C.3   100  LEU100      0.0001
     16  N         71.8980   60.6930  -18.8920 N.3   209  GLY209     -0.1210
     17  CA        72.4960   59.6830  -18.0240 C.3   209  GLY209      0.1956
     18  C         73.0910   58.4880  -18.7570 C.2   209  GLY209      0.2612
     19  O         73.3060   58.5140  -19.9710 O.2   209  GLY209     -0.2717
     20  N         73.3450   57.4320  -17.9930 N.am  210  ARG210     -0.1965
     21  CA        74.0510   56.2500  -18.5000 C.3   210  ARG210      0.1729
     22  C         73.3110   55.6270  -19.6820 C.2   210  ARG210      0.2616
     23  O         73.9270   54.9520  -20.4840 O.2   210  ARG210     -0.2715
     24  CB        74.2710   55.2070  -17.3850 C.3   210  ARG210      0.0348
     25  CG        75.4220   54.2320  -17.6420 C.3   210  ARG210      0.0492
     26  CD        75.4230   52.9810  -16.7070 C.3   210  ARG210      0.2205
     27  NE        75.1570   53.2480  -15.2790 N.pl3 210  ARG210     -0.0865
     28  CZ        76.0630   53.3570  -14.3110 C.cat 210  ARG210      0.5346
     29  NH1       77.3620   53.3000  -14.5480 N.pl3 210  ARG210      0.1354
     30  NH2       75.6580   53.5500  -13.0670 N.pl3 210  ARG210      0.1354
     31  N         71.9980   55.8540  -19.7690 N.am  211  GLY211     -0.1955
     32  CA        71.1850   55.3360  -20.8540 C.3   211  GLY211      0.1869
     33  C         71.6360   55.7690  -22.2420 C.2   211  GLY211      0.2309
     34  O         71.2430   55.1640  -23.2260 O.2   211  GLY211     -0.2863
     35  N         74.1180   63.1230  -15.3310 N.3   235  SER235     -0.1202
     36  CA        74.2760   62.3870  -14.0990 C.3   235  SER235      0.2020
     37  C         75.7540   62.1000  -13.9120 C.2   235  SER235      0.2619
     38  O         76.5880   62.2860  -14.8260 O.2   235  SER235     -0.2717
     39  CB        73.4440   61.0940  -14.1380 C.3   235  SER235      0.2103
     40  OG        73.9690   60.2390  -15.1530 O.3   235  SER235     -0.2182
     41  N         76.0860   61.6100  -12.7200 N.am  236  ALA236     -0.1965
     42  CA        77.4740   61.3780  -12.3320 C.3   236  ALA236      0.1713
     43  C         78.2570   60.4940  -13.2830 C.2   236  ALA236      0.2458
     44  O         79.3930   60.8040  -13.5560 O.2   236  ALA236     -0.2730
     45  CB        77.5480   60.7630  -10.8930 C.3   236  ALA236      0.0333
     46  N         77.6860   59.3730  -13.7390 N.am  237  PRO237     -0.2727
     47  CA        78.5100   58.5150  -14.6120 C.3   237  PRO237      0.1402
     48  C         79.0380   59.2190  -15.8650 C.2   237  PRO237      0.2269
     49  O         80.1430   58.9160  -16.3350 O.2   237  PRO237     -0.2865
     50  CB        77.5430   57.3920  -15.0400 C.3   237  PRO237      0.0296
     51  CG        76.4260   57.4150  -14.0330 C.3   237  PRO237      0.0237
     52  CD        76.3340   58.8080  -13.5160 C.3   237  PRO237      0.0939
     53  N         77.3610   68.3540  -13.8180 N.3   249  GLN249     -0.1231
     54  CA        76.8040   67.2460  -13.0750 C.3   249  GLN249      0.1698
     55  C         75.7590   67.7390  -12.0720 C.2   249  GLN249      0.2592
     56  O         76.0250   68.6590  -11.2600 O.2   249  GLN249     -0.2718
     57  CB        77.8920   66.4720  -12.3490 C.3   249  GLN249      0.0381
     58  CG        77.3870   65.3230  -11.4990 C.3   249  GLN249      0.0905
     59  CD        78.5220   64.5510  -10.8790 C.2   249  GLN249      0.2608
     60  OE1       79.5600   64.3520  -11.5160 O.2   249  GLN249     -0.2717
     61  NE2       78.3410   64.1060   -9.6420 N.am  249  GLN249     -0.0878
     62  N         74.6170   67.0480  -12.0980 N.am  250  VAL250     -0.1966
     63  CA        73.5030   67.3300  -11.1990 C.3   250  VAL250      0.1727
     64  C         73.4140   66.2510  -10.1150 C.2   250  VAL250      0.2617
     65  O         73.4390   65.0540  -10.4150 O.2   250  VAL250     -0.2715
     66  CB        72.1640   67.3810  -11.9810 C.3   250  VAL250      0.0290
     67  CG1       70.9720   67.5950  -11.0250 C.3   250  VAL250      0.0023
     68  CG2       72.2030   68.4560  -13.0540 C.3   250  VAL250      0.0023
     69  N         73.3110   66.6930   -8.8580 N.am  251  GLY251     -0.1940
     70  CA        73.0250   65.8180   -7.7370 C.3   251  GLY251      0.2014
     71  C         73.9050   66.1440   -6.5370 C.2   251  GLY251      0.2639
     72  O         74.5920   67.1760   -6.5040 O.2   251  GLY251     -0.2714
     73  N         73.9190   65.2450   -5.5630 N.am  252  GLN252     -0.1963
     74  CA        74.5770   65.4990   -4.2690 C.3   252  GLN252      0.1733
     75  C         76.0440   65.9540   -4.3770 C.2   252  GLN252      0.2617
     76  O         76.4630   66.9120   -3.7440 O.2   252  GLN252     -0.2715
     77  CB        74.5210   64.2290   -3.4180 C.3   252  GLN252      0.0408
     78  CG        75.1400   64.4040   -2.0700 C.3   252  GLN252      0.0908
     79  CD        75.0610   63.1730   -1.2440 C.2   252  GLN252      0.2608
     80  OE1       76.0970   62.5930   -0.8570 O.2   252  GLN252     -0.2717
     81  NE2       73.8540   62.7750   -0.9270 N.am  252  GLN252     -0.0878
     82  N         76.8380   65.2240   -5.1360 N.am  253  SER253     -0.1936
     83  CA        78.2430   65.5030   -5.2410 C.3   253  SER253      0.2055
     84  C         78.5070   66.5300   -6.3840 C.2   253  SER253      0.2643
     85  O         79.6140   67.0540   -6.5290 O.2   253  SER253     -0.2714
     86  CB        79.0140   64.1740   -5.3870 C.3   253  SER253      0.2130
     87  OG        78.8100   63.6230   -6.6720 O.3   253  SER253     -0.2179
     88  N         77.4680   66.8180   -7.1660 N.am  254  GLY254     -0.1954
     89  CA        77.4840   67.8440   -8.2070 C.3   254  GLY254      0.1869
     90  C         76.7420   69.0680   -7.7010 C.2   254  GLY254      0.2309
     91  O         76.8930   69.4740   -6.5380 O.2   254  GLY254     -0.2863
     92  N         67.4280   58.9570  -19.8700 N.3   267  GLY267     -0.1210
     93  CA        68.3170   57.8310  -19.5990 C.3   267  GLY267      0.1956
     94  C         68.9660   57.9450  -18.2330 C.2   267  GLY267      0.2612
     95  O         70.1040   57.5130  -18.0560 O.2   267  GLY267     -0.2717
     96  N         68.2050   58.5280  -17.2890 N.am  268  ILE268     -0.1965
     97  CA        68.5940   58.6750  -15.8970 C.3   268  ILE268      0.1727
     98  C         67.6180   57.9150  -14.9890 C.2   268  ILE268      0.2617
     99  O         66.3960   58.1500  -15.0280 O.2   268  ILE268     -0.2715
    100  CB        68.6490   60.1710  -15.5210 C.3   268  ILE268      0.0290
    101  CG1       69.7760   60.8630  -16.2940 C.3   268  ILE268      0.0022
    102  CG2       68.8690   60.3420  -14.0090 C.3   268  ILE268      0.0023
    103  CD1       69.6840   62.3500  -16.2500 C.3   268  ILE268      0.0001
    104  N         68.1340   57.0100  -14.1570 N.am  269  SER269     -0.1936
    105  CA        67.2510   56.1520  -13.3330 C.3   269  SER269      0.2055
    106  C         66.5540   56.8980  -12.1740 C.2   269  SER269      0.2644
    107  O         65.4860   56.4860  -11.7110 O.2   269  SER269     -0.2714
    108  CB        68.0050   54.9520  -12.7560 C.3   269  SER269      0.2130
    109  OG        68.9850   55.3680  -11.8430 O.3   269  SER269     -0.2179
    110  N         67.2010   57.9350  -11.6670 N.am  270  GLY270     -0.1939
    111  CA        66.6920   58.7120  -10.5530 C.3   270  GLY270      0.2014
    112  C         67.1750   58.2060   -9.2170 C.2   270  GLY270      0.2639
    113  O         66.4000   58.0760   -8.2870 O.2   270  GLY270     -0.2714
    114  N         68.4600   57.9240   -9.1200 N.am  271  SER271     -0.1949
    115  CA        69.0680   57.6160   -7.8340 C.3   271  SER271      0.1924
    116  C         68.7830   58.7680   -6.8660 C.2   271  SER271      0.2314
    117  O         68.5770   59.9070   -7.2620 O.2   271  SER271     -0.2863
    118  CB        70.5880   57.4690   -7.9310 C.3   271  SER271      0.2116
    119  OG        71.1900   58.7610   -8.2090 O.3   271  SER271     -0.2180
    120  N         70.7750   60.2740   -4.9120 N.3   273  GLN273     -0.1231
    121  CA        71.8050   61.3260   -5.0520 C.3   273  GLN273      0.1698
    122  C         71.5860   62.1980   -6.2980 C.2   273  GLN273      0.2592
    123  O         71.9050   63.3670   -6.2730 O.2   273  GLN273     -0.2718
    124  CB        73.2100   60.7490   -5.0730 C.3   273  GLN273      0.0381
    125  CG        73.6010   60.0370   -3.7960 C.3   273  GLN273      0.0905
    126  CD        73.1570   58.5660   -3.7630 C.2   273  GLN273      0.2608
    127  OE1       72.4160   58.0730   -4.6380 O.2   273  GLN273     -0.2717
    128  NE2       73.6130   57.8630   -2.7240 N.am  273  GLN273     -0.0878
    129  N         71.0390   61.6590   -7.3860 N.am  274  HIS274     -0.1976
    130  CA        70.7130   62.5190   -8.5130 C.3   274  HIS274      0.1656
    131  C         69.5280   63.4210   -8.1500 C.2   274  HIS274      0.2291
    132  O         69.5460   64.6400   -8.3920 O.2   274  HIS274     -0.2864
    133  CB        70.4360   61.7240   -9.7960 C.3   274  HIS274      0.0771
    134  CG        70.3790   62.5880  -11.0220 C.ar  274  HIS274      0.0820
    135  ND1       71.5100   62.9340  -11.7390 N.ar  274  HIS274     -0.2267
    136  CD2       69.3490   63.2500  -11.6000 C.ar  274  HIS274      0.1154
    137  CE1       71.1570   63.7430  -12.7270 C.ar  274  HIS274      0.1986
    138  NE2       69.8520   63.9490  -12.6600 N.ar  274  HIS274     -0.2212
    139  N         62.6680   57.3320  -20.2980 N.3   288  ASN288     -0.1225
    140  CA        63.3550   56.1650  -19.7680 C.3   288  ASN288      0.1785
    141  C         62.5440   54.8990  -20.1290 C.2   288  ASN288      0.2598
    142  O         61.3400   54.8550  -19.8950 O.2   288  ASN288     -0.2718
    143  CB        63.4630   56.3080  -18.2520 C.3   288  ASN288      0.1169
    144  CG        64.4800   55.3460  -17.6230 C.2   288  ASN288      0.2627
    145  OD1       64.4690   54.1620  -17.8930 O.2   288  ASN288     -0.2716
    146  ND2       65.3410   55.8670  -16.7420 N.am  288  ASN288     -0.0877
    147  N         63.1980   53.8860  -20.6690 N.am  289  THR289     -0.1939
    148  CA        62.5330   52.6500  -21.0980 C.3   289  THR289      0.2028
    149  C         62.2120   51.6870  -19.9340 C.2   289  THR289      0.2642
    150  O         61.5860   50.6390  -20.1300 O.2   289  THR289     -0.2714
    151  CB        63.3920   51.9040  -22.1740 C.3   289  THR289      0.1808
    152  OG1       64.7520   51.7810  -21.7200 O.3   289  THR289     -0.2208
    153  CG2       63.3300   52.6210  -23.5380 C.3   289  THR289      0.0379
    154  N         62.6620   52.0190  -18.7180 N.am  290  ASP290     -0.1971
    155  CA        62.3680   51.1890  -17.5320 C.3   290  ASP290      0.1709
    156  C         61.2590   51.8300  -16.7430 C.2   290  ASP290      0.2293
    157  O         61.5050   52.7930  -16.0120 O.2   290  ASP290     -0.2864
    158  CB        63.5980   51.0600  -16.6160 C.3   290  ASP290      0.1436
    159  CG        63.3090   50.2290  -15.3630 C.2   290  ASP290      0.3671
    160  OD1       62.2060   49.5990  -15.2950 O.co2 290  ASP290     -0.2456
    161  OD2       64.1620   50.2310  -14.4390 O.co2 290  ASP290     -0.2456
    162  N         61.8730   52.6480  -13.0990 N.3   293  ALA293     -0.1245
    163  CA        62.9040   53.6050  -12.6990 C.3   293  ALA293      0.1562
    164  C         62.3760   54.6130  -11.6400 C.2   293  ALA293      0.2260
    165  O         61.2580   55.1470  -11.7540 O.2   293  ALA293     -0.2867
    166  CB        63.4070   54.3290  -13.9090 C.3   293  ALA293      0.0290
    167  N         60.0310   55.2970  -23.3370 N.3   305  ALA305     -0.1231
    168  CA        60.4480   55.1930  -24.7180 C.3   305  ALA305      0.1694
    169  C         61.9410   55.3890  -24.8590 C.2   305  ALA305      0.2592
    170  O         62.5910   55.9360  -23.9740 O.2   305  ALA305     -0.2718
    171  CB        59.7130   56.1980  -25.5990 C.3   305  ALA305      0.0304
    172  N         62.4620   54.8980  -25.9840 N.am  306  ASP306     -0.1960
    173  CA        63.8590   55.0030  -26.3110 C.3   306  ASP306      0.1840
    174  C         64.2920   56.4550  -26.4500 C.2   306  ASP306      0.2622
    175  O         63.6650   57.2210  -27.1740 O.2   306  ASP306     -0.2715
    176  CB        64.1320   54.2820  -27.6310 C.3   306  ASP306      0.1450
    177  CG        65.6060   54.2830  -27.9960 C.2   306  ASP306      0.3671
    178  OD1       66.0060   55.0830  -28.8690 O.co2 306  ASP306     -0.2456
    179  OD2       66.3540   53.4880  -27.3890 O.co2 306  ASP306     -0.2456
    180  N         65.3440   56.8360  -25.7330 N.am  307  ILE307     -0.1963
    181  CA        65.7980   58.2230  -25.7490 C.3   307  ILE307      0.1727
    182  C         66.3160   58.6740  -27.0940 C.2   307  ILE307      0.2616
    183  O         66.2100   59.8410  -27.4120 O.2   307  ILE307     -0.2715
    184  CB        66.8550   58.5500  -24.6270 C.3   307  ILE307      0.0290
    185  CG1       68.0310   57.5530  -24.6450 C.3   307  ILE307      0.0022
    186  CG2       66.1600   58.5790  -23.3040 C.3   307  ILE307      0.0023
    187  CD1       69.1780   57.9990  -23.7240 C.3   307  ILE307      0.0001
    188  N         66.8750   57.7690  -27.8960 N.am  308  PHE308     -0.1974
    189  CA        67.4270   58.1750  -29.2030 C.3   308  PHE308      0.1639
    190  C         66.2890   58.4450  -30.1730 C.2   308  PHE308      0.2290
    191  O         66.2870   59.4840  -30.8450 O.2   308  PHE308     -0.2864
    192  CB        68.4260   57.1340  -29.7460 C.3   308  PHE308      0.0560
    193  CG        69.4300   56.6950  -28.7280 C.ar  308  PHE308     -0.0200
    194  CD1       69.2640   55.4980  -28.0570 C.ar  308  PHE308     -0.0042
    195  CD2       70.4920   57.5150  -28.3770 C.ar  308  PHE308     -0.0042
    196  CE1       70.1600   55.0810  -27.0760 C.ar  308  PHE308     -0.0003
    197  CE2       71.3970   57.1260  -27.3930 C.ar  308  PHE308     -0.0003
    198  CZ        71.2360   55.9070  -26.7440 C.ar  308  PHE308     -0.0000
@<TRIPOS>BOND
     1   191   190    2
     2   190   189    1
     3   192   189    1
     4   192   193    1
     5   189   188    1
     6   178   177   ar
     7   193   195   ar
     8   193   194   ar
     9   195   197   ar
    10   194   196   ar
    11   177   176    1
    12   177   179   ar
    13   188   182   am
    14   176   173    1
    15   183   182    2
    16   197   198   ar
    17   175   174    2
    18   182   181    1
    19   196   198   ar
    20   174   173    1
    21   174   180   am
    22   173   172    1
    23   172   169   am
    24   181   180    1
    25   181   184    1
    26   171   168    1
    27   169   168    1
    28   169   170    2
    29   168   167    1
    30   185   184    1
    31   185   187    1
    32   184   186    1
    33   153   151    1
    34    34    33    2
    35    33    32    1
    36   151   152    1
    37   151   148    1
    38   148   147    1
    39   148   149    1
    40    32    31    1
    41   147   141   am
    42    23    22    2
    43   139   140    1
    44   150   149    2
    45   141   142    2
    46   141   140    1
    47    19    18    2
    48   149   154   am
    49    92    93    1
    50    31    22   am
    51   140   143    1
    52    22    21    1
    53    93    94    1
    54    16    17    1
    55    18    17    1
    56    18    20   am
    57   154   155    1
    58    21    20    1
    59    21    24    1
    60   143   144    1
    61    94    95    2
    62    94    96   am
    63   145   144    2
    64    25    24    1
    65    25    26    1
    66   144   146   am
    67   155   156    1
    68   155   158    1
    69    96    97    1
    70   156   157    2
    71    26    27    1
    72   158   159    1
    73    49    48    2
    74   101   103    1
    75   101   100    1
    76    97   100    1
    77    97    98    1
    78    48    47    1
    79   100   102    1
    80   159   160   ar
    81   159   161   ar
    82    35    36    1
    83    27    28    2
    84    40    39    1
    85    50    47    1
    86    50    51    1
    87    99    98    2
    88    98   104   am
    89    38    37    2
    90    47    46    1
    91    29    28    1
    92    28    30    1
    93   104   105    1
    94    39    36    1
    95    36    37    1
    96    51    52    1
    97    37    41   am
    98   166   163    1
    99    53    54    1
   100    46    52    1
   101    46    43   am
   102    44    43    2
   103   105   108    1
   104   105   106    1
   105    43    42    1
   106   162   163    1
   107    54    57    1
   108    54    55    1
   109    68    66    1
   110   108   109    1
   111   137   138   ar
   112   137   135   ar
   113    41    42    1
   114   163   164    1
   115   138   136   ar
   116    57    58    1
   117    42    45    1
   118   106   107    2
   119   106   110   am
   120    62    55   am
   121    62    63    1
   122    55    56    2
   123    66    63    1
   124    66    67    1
   125   165   164    2
   126   135   134   ar
   127   110   111    1
   128   136   134   ar
   129    60    59    2
   130    58    59    1
   131    63    64    1
   132   134   133    1
   133    59    61   am
   134   111   112    1
   135    65    64    2
   136    64    69   am
   137   133   130    1
   138   112   114   am
   139   112   113    2
   140   114   115    1
   141    69    70    1
   142   130   131    1
   143   130   129    1
   144   132   131    2
   145   119   118    1
   146    89    90    1
   147    89    88    1
   148   118   115    1
   149   115   116    1
   150    70    71    1
   151    90    91    2
   152   129   122   am
   153   117   116    2
   154    88    84   am
   155    87    86    1
   156    71    72    2
   157    71    73   am
   158    85    84    2
   159    84    83    1
   160   122   123    2
   161   122   121    1
   162    73    74    1
   163    86    83    1
   164    83    82    1
   165    82    75   am
   166   124   121    1
   167   124   125    1
   168   121   120    1
   169   127   126    2
   170    75    74    1
   171    75    76    2
   172    74    77    1
   173   125   126    1
   174   126   128   am
   175    77    78    1
   176    78    79    1
   177    79    81   am
   178    79    80    2
   179     7     5    1
   180     6     5    1
   181     5     2    1
   182    14    13    1
   183     2     1    1
   184     2     3    1
   185    13    15    1
   186    13    12    1
   187     3     4    2
   188    12     9    1
   189     9     8    1
   190     9    10    1
   191    10    11    2
