@<TRIPOS>MOLECULE
tmp/3clvA00.pdb
 164 159 0 0 0
SMALL
GASTEIGER

@<TRIPOS>ATOM
      1  N        -44.0140    2.4700   -2.9430 N.3    16  SER16      -0.1202
      2  CA       -44.3990    1.1300   -3.3880 C.3    16  SER16       0.2020
      3  C        -44.5940    1.0660   -4.9050 C.2    16  SER16       0.2619
      4  O        -45.0680    2.0280   -5.5410 O.2    16  SER16      -0.2717
      5  CB       -45.6250    0.5650   -2.6460 C.3    16  SER16       0.2103
      6  OG       -46.7620    1.3750   -2.8520 O.3    16  SER16      -0.2182
      7  N        -44.1640   -0.0670   -5.4580 N.am   17  SER17      -0.1937
      8  CA       -44.2490   -0.4170   -6.8820 C.3    17  SER17       0.2055
      9  C        -43.0790    0.0310   -7.7520 C.2    17  SER17       0.2643
     10  O        -43.0260   -0.3490   -8.9190 O.2    17  SER17      -0.2714
     11  CB       -45.5820    0.0310   -7.5250 C.3    17  SER17       0.2130
     12  OG       -45.4480    1.3490   -8.0330 O.3    17  SER17      -0.2179
     13  N        -42.1510    0.8150   -7.1930 N.am   18  VAL18      -0.1963
     14  CA       -40.9760    1.3050   -7.9740 C.3    18  VAL18       0.1727
     15  C        -39.9670    0.2160   -8.2990 C.2    18  VAL18       0.2617
     16  O        -39.2020    0.3410   -9.2540 O.2    18  VAL18      -0.2715
     17  CB       -40.2820    2.5540   -7.3420 C.3    18  VAL18       0.0290
     18  CG1      -41.2770    3.6850   -7.1700 C.3    18  VAL18       0.0023
     19  CG2      -39.5640    2.2240   -6.0160 C.3    18  VAL18       0.0023
     20  N        -39.9730   -0.8720   -7.5320 N.am   19  GLY19      -0.1940
     21  CA       -39.1320   -2.0130   -7.8650 C.3    19  GLY19       0.2014
     22  C        -38.0370   -2.3630   -6.8630 C.2    19  GLY19       0.2639
     23  O        -37.0910   -3.0670   -7.2090 O.2    19  GLY19      -0.2714
     24  N        -38.1690   -1.9000   -5.6220 N.am   20  LYS20      -0.1963
     25  CA       -37.1940   -2.2160   -4.5630 C.3    20  LYS20       0.1728
     26  C        -37.0230   -3.7290   -4.3430 C.2    20  LYS20       0.2617
     27  O        -35.9010   -4.2160   -4.3090 O.2    20  LYS20      -0.2715
     28  CB       -37.6050   -1.5430   -3.2450 C.3    20  LYS20       0.0311
     29  CG       -37.6410    0.0010   -3.2880 C.3    20  LYS20       0.0038
     30  CD       -38.0070    0.6060   -1.9060 C.3    20  LYS20       0.0206
     31  CE       -39.4180    0.2300   -1.3680 C.3    20  LYS20       0.1093
     32  NZ       -40.5970    0.5400   -2.3050 N.3    20  LYS20      -0.1314
     33  N        -38.1160   -4.4840   -4.2080 N.am   21  SER21      -0.1936
     34  CA       -37.9520   -5.9170   -3.9170 C.3    21  SER21       0.2055
     35  C        -37.3070   -6.5860   -5.1270 C.2    21  SER21       0.2643
     36  O        -36.5380   -7.5240   -4.9780 O.2    21  SER21      -0.2714
     37  CB       -39.2770   -6.6120   -3.5270 C.3    21  SER21       0.2130
     38  OG       -40.1190   -6.8540   -4.6510 O.3    21  SER21      -0.2179
     39  N        -37.6170   -6.0660   -6.3180 N.am   22  SER22      -0.1949
     40  CA       -37.0720   -6.5750   -7.5760 C.3    22  SER22       0.1924
     41  C        -35.5760   -6.2950   -7.7240 C.2    22  SER22       0.2314
     42  O        -34.8150   -7.1590   -8.1740 O.2    22  SER22      -0.2863
     43  CB       -37.8600   -6.0410   -8.7620 C.3    22  SER22       0.2116
     44  OG       -39.2280   -6.4280   -8.6660 O.3    22  SER22      -0.2180
     45  N        -36.0080  -12.3770  -11.7040 N.3    32  PHE32      -0.1227
     46  CA       -37.0500  -11.3570  -11.7600 C.3    32  PHE32       0.1736
     47  C        -38.4500  -11.9750  -11.7760 C.2    32  PHE32       0.2595
     48  O        -38.7000  -12.9370  -12.5200 O.2    32  PHE32      -0.2718
     49  CB       -36.8260  -10.4440  -12.9760 C.3    32  PHE32       0.0547
     50  CG       -37.9310   -9.4370  -13.2090 C.ar   32  PHE32      -0.0202
     51  CD1      -37.9760   -8.2350  -12.4910 C.ar   32  PHE32      -0.0042
     52  CD2      -38.9100   -9.6790  -14.1630 C.ar   32  PHE32      -0.0042
     53  CE1      -39.0130   -7.3150  -12.7090 C.ar   32  PHE32      -0.0003
     54  CE2      -39.9250   -8.7510  -14.4090 C.ar   32  PHE32      -0.0003
     55  CZ       -39.9710   -7.5660  -13.6760 C.ar   32  PHE32      -0.0000
     56  N        -39.3590  -11.3980  -10.9780 N.am   33  HIS33      -0.1961
     57  CA       -40.7770  -11.7830  -10.9820 C.3    33  HIS33       0.1787
     58  C        -41.6530  -10.6440  -11.4910 C.2    33  HIS33       0.2620
     59  O        -41.6240   -9.5490  -10.9220 O.2    33  HIS33      -0.2715
     60  CB       -41.2470  -12.1950   -9.5700 C.3    33  HIS33       0.0785
     61  CG       -40.4870  -13.3460   -8.9800 C.ar   33  HIS33       0.0821
     62  ND1      -40.4230  -13.5700   -7.6230 N.ar   33  HIS33      -0.2267
     63  CD2      -39.7610  -14.3360   -9.5580 C.ar   33  HIS33       0.1154
     64  CE1      -39.6970  -14.6470   -7.3890 C.ar   33  HIS33       0.1986
     65  NE2      -39.2870  -15.1330   -8.5480 N.ar   33  HIS33      -0.2212
     66  N        -42.4360  -10.9210  -12.5490 N.am   34  GLU34      -0.1963
     67  CA       -43.3170   -9.9160  -13.1590 C.3    34  GLU34       0.1733
     68  C        -44.4470   -9.5010  -12.2140 C.2    34  GLU34       0.2616
     69  O        -44.9980   -8.4020  -12.3330 O.2    34  GLU34      -0.2715
     70  CB       -43.8990  -10.4160  -14.4940 C.3    34  GLU34       0.0429
     71  CG       -42.8730  -10.6610  -15.5950 C.3    34  GLU34       0.1163
     72  CD       -42.5800   -9.4340  -16.4670 C.2    34  GLU34       0.3649
     73  OE1      -41.9040   -9.6000  -17.5030 O.co2  34  GLU34      -0.2457
     74  OE2      -43.0160   -8.3130  -16.1400 O.co2  34  GLU34      -0.2457
     75  N        -44.7860  -10.3860  -11.2780 N.am   35  ASN35      -0.1958
     76  CA       -45.7970  -10.1330  -10.2490 C.3    35  ASN35       0.1819
     77  C        -45.1250  -10.2660   -8.8940 C.2    35  ASN35       0.2622
     78  O        -44.3220  -11.1600   -8.6960 O.2    35  ASN35      -0.2715
     79  CB       -46.9340  -11.1610  -10.3380 C.3    35  ASN35       0.1195
     80  CG       -47.6190  -11.1630  -11.6960 C.2    35  ASN35       0.2630
     81  OD1      -47.8140  -10.1170  -12.3120 O.2    35  ASN35      -0.2716
     82  ND2      -47.9650  -12.3460  -12.1770 N.am   35  ASN35      -0.0877
     83  N        -45.4350   -9.3600   -7.9730 N.am   36  THR36      -0.1937
     84  CA       -44.8200   -9.3930   -6.6410 C.3    36  THR36       0.2028
     85  C        -45.9000   -9.1860   -5.5940 C.2    36  THR36       0.2642
     86  O        -46.9540   -8.6540   -5.8950 O.2    36  THR36      -0.2714
     87  CB       -43.7030   -8.3100   -6.4670 C.3    36  THR36       0.1808
     88  OG1      -44.2630   -7.0010   -6.6090 O.3    36  THR36      -0.2208
     89  CG2      -42.5700   -8.4990   -7.4790 C.3    36  THR36       0.0379
     90  N        -45.6360   -9.6270   -4.3670 N.am   37  ASN37      -0.1971
     91  CA       -46.5980   -9.5070   -3.2830 C.3    37  ASN37       0.1688
     92  C        -46.1040   -8.4790   -2.2720 C.2    37  ASN37       0.2292
     93  O        -44.9220   -8.1530   -2.2470 O.2    37  ASN37      -0.2864
     94  CB       -46.8240  -10.8610   -2.5620 C.3    37  ASN37       0.1181
     95  CG       -47.2830  -11.9910   -3.4960 C.2    37  ASN37       0.2629
     96  OD1      -47.1500  -13.1660   -3.1610 O.2    37  ASN37      -0.2716
     97  ND2      -47.8010  -11.6430   -4.6570 N.am   37  ASN37      -0.0877
     98  N        -34.6680   -2.8540    3.1350 N.3    68  ASP68      -0.1239
     99  CA       -35.7180   -2.4170    2.2040 C.3    68  ASP68       0.1674
    100  C        -36.9250   -1.9520    2.9970 C.2    68  ASP68       0.2266
    101  O        -37.5380   -2.7430    3.7110 O.2    68  ASP68      -0.2867
    102  CB       -36.0970   -3.5670    1.2600 C.3    68  ASP68       0.1410
    103  CG       -37.2350   -3.2300    0.2990 C.2    68  ASP68       0.3668
    104  OD1      -37.6490   -2.0530    0.2080 O.co2  68  ASP68      -0.2456
    105  OD2      -37.7140   -4.1810   -0.3880 O.co2  68  ASP68      -0.2456
    106  N        -39.8270   -1.3650    2.1450 N.3    70  ALA70      -0.1245
    107  CA       -40.8640   -2.3410    1.7280 C.3    70  ALA70       0.1562
    108  C        -42.2880   -2.0170    2.1540 C.2    70  ALA70       0.2260
    109  O        -43.0850   -2.9410    2.3950 O.2    70  ALA70      -0.2867
    110  CB       -40.5070   -3.7560    2.2030 C.3    70  ALA70       0.0290
    111  N        -35.4090    3.4130  -11.9530 N.3   124  ASN124     -0.1225
    112  CA       -35.7100    2.0310  -12.3070 C.3   124  ASN124      0.1785
    113  C        -36.7960    1.9010  -13.4030 C.2   124  ASN124      0.2597
    114  O        -37.5870    2.8230  -13.6240 O.2   124  ASN124     -0.2718
    115  CB       -36.0690    1.2110  -11.0530 C.3   124  ASN124      0.1169
    116  CG       -36.0660   -0.3010  -11.3050 C.2   124  ASN124      0.2627
    117  OD1      -35.1210   -0.8550  -11.8670 O.2   124  ASN124     -0.2716
    118  ND2      -37.1090   -0.9790  -10.8190 N.am  124  ASN124     -0.0877
    119  N        -36.8020    0.7440  -14.0690 N.am  125  LYS125     -0.1980
    120  CA       -37.8030    0.3710  -15.0990 C.3   125  LYS125      0.1596
    121  C        -37.5370    0.9870  -16.4730 C.2   125  LYS125      0.2287
    122  O        -38.4670    1.1770  -17.2700 O.2   125  LYS125     -0.2864
    123  CB       -39.2370    0.6460  -14.6430 C.3   125  LYS125      0.0298
    124  CG       -39.5700    0.0470  -13.2540 C.3   125  LYS125      0.0038
    125  CD       -41.0630   -0.2200  -13.1800 C.3   125  LYS125      0.0206
    126  CE       -41.5440   -0.3750  -11.7430 C.3   125  LYS125      0.1093
    127  NZ       -42.9870   -0.7890  -11.6750 N.3   125  LYS125     -0.1314
    128  N        -36.4280   -0.2860  -18.9900 N.3   127  ASP127     -0.1225
    129  CA       -36.8630   -1.2170  -20.0370 C.3   127  ASP127      0.1805
    130  C        -38.2470   -0.8730  -20.5980 C.2   127  ASP127      0.2597
    131  O        -38.6000   -1.3130  -21.6940 O.2   127  ASP127     -0.2718
    132  CB       -36.8850   -2.6440  -19.4960 C.3   127  ASP127      0.1424
    133  CG       -37.8630   -2.8040  -18.3610 C.2   127  ASP127      0.3668
    134  OD1      -39.0610   -3.0500  -18.6320 O.co2 127  ASP127     -0.2456
    135  OD2      -37.4420   -2.6550  -17.2010 O.co2 127  ASP127     -0.2456
    136  N        -39.0420   -0.1230  -19.8430 N.am  128  LYS128     -0.1979
    137  CA       -40.3820    0.2560  -20.2970 C.3   128  LYS128      0.1596
    138  C        -40.3310    1.3330  -21.3970 C.2   128  LYS128      0.2287
    139  O        -39.3290    2.0560  -21.5300 O.2   128  LYS128     -0.2864
    140  CB       -41.2530    0.7040  -19.1210 C.3   128  LYS128      0.0298
    141  CG       -41.6040   -0.4260  -18.1340 C.3   128  LYS128      0.0038
    142  CD       -42.4170    0.0860  -16.9630 C.3   128  LYS128      0.0206
    143  CE       -43.8680    0.2720  -17.3650 C.3   128  LYS128      0.1093
    144  NZ       -44.7600    0.6440  -16.2290 N.3   128  LYS128     -0.1314
    145  N        -32.7270   -1.4430  -14.8200 N.3   152  SER152     -0.1202
    146  CA       -33.8660   -2.3300  -15.0020 C.3   152  SER152      0.2020
    147  C        -33.6440   -3.5950  -14.1820 C.2   152  SER152      0.2619
    148  O        -32.6950   -4.3530  -14.4160 O.2   152  SER152     -0.2717
    149  CB       -34.1290   -2.6400  -16.4910 C.3   152  SER152      0.2103
    150  OG       -35.2480   -3.5300  -16.6410 O.3   152  SER152     -0.2182
    151  N        -34.5000   -3.8080  -13.1800 N.am  153  ALA153     -0.1965
    152  CA       -34.5420   -5.0980  -12.4720 C.3   153  ALA153      0.1728
    153  C        -34.9730   -6.2080  -13.4250 C.2   153  ALA153      0.2616
    154  O        -34.5330   -7.3440  -13.2970 O.2   153  ALA153     -0.2715
    155  CB       -35.4990   -5.0320  -11.2780 C.3   153  ALA153      0.0334
    156  N        -35.8450   -5.8710  -14.3720 N.am  154  LYS154     -0.1977
    157  CA       -36.3410   -6.8450  -15.3640 C.3   154  LYS154      0.1596
    158  C        -35.2110   -7.4320  -16.2260 C.2   154  LYS154      0.2287
    159  O        -35.0680   -8.6520  -16.3220 O.2   154  LYS154     -0.2864
    160  CB       -37.4760   -6.2410  -16.2070 C.3   154  LYS154      0.0298
    161  CG       -38.2110   -7.2640  -17.1240 C.3   154  LYS154      0.0038
    162  CD       -39.3800   -6.6420  -17.8780 C.3   154  LYS154      0.0206
    163  CE       -39.9050   -7.5790  -18.9860 C.3   154  LYS154      0.1093
    164  NZ       -41.1720   -7.0010  -19.5450 N.3   154  LYS154     -0.1314
@<TRIPOS>BOND
     1   131   130    2
     2   139   138    2
     3   138   137    1
     4   130   129    1
     5   130   136   am
     6   137   136    1
     7   137   140    1
     8   129   132    1
     9   129   128    1
    10   164   163    1
    11   132   133    1
    12   140   141    1
    13   163   162    1
    14   134   133   ar
    15   133   135   ar
    16   141   142    1
    17   162   161    1
    18    73    72   ar
    19   143   142    1
    20   143   144    1
    21   122   121    2
    22   161   160    1
    23   150   149    1
    24   149   146    1
    25   121   120    1
    26    72    74   ar
    27    72    71    1
    28   159   158    2
    29   158   157    1
    30   160   157    1
    31    71    70    1
    32   157   156    1
    33   120   123    1
    34   120   119    1
    35   146   145    1
    36   146   147    1
    37   123   124    1
    38    70    67    1
    39   148   147    2
    40    54    52   ar
    41    54    55   ar
    42   156   153   am
    43   147   151   am
    44    52    50   ar
    45   119   113   am
    46    55    53   ar
    47   114   113    2
    48   153   154    2
    49   153   152    1
    50   113   112    1
    51   124   125    1
    52    50    49    1
    53    50    51   ar
    54   151   152    1
    55   125   126    1
    56    67    66    1
    57    67    68    1
    58    49    46    1
    59    53    51   ar
    60    66    58   am
    61    48    47    2
    62   152   155    1
    63    69    68    2
    64    81    80    2
    65   112   111    1
    66   112   115    1
    67    68    75   am
    68    82    80   am
    69   117   116    2
    70    47    46    1
    71    47    56   am
    72    46    45    1
    73   126   127    1
    74    80    79    1
    75    58    57    1
    76    58    59    2
    77   116   115    1
    78   116   118   am
    79    75    76    1
    80    57    56    1
    81    57    60    1
    82    79    76    1
    83    76    77    1
    84    60    61    1
    85    63    61   ar
    86    63    65   ar
    87    16    15    2
    88    61    62   ar
    89    10     9    2
    90    77    78    2
    91    77    83   am
    92    43    44    1
    93    43    40    1
    94    65    64   ar
    95    15    14    1
    96    15    20   am
    97    42    41    2
    98    12    11    1
    99    14    17    1
   100    14    13    1
   101    83    84    1
   102    21    20    1
   103    21    22    1
   104     9    13   am
   105     9     8    1
   106    41    40    1
   107    62    64   ar
   108    40    39    1
   109    11     8    1
   110    89    87    1
   111    17    18    1
   112    17    19    1
   113    23    22    2
   114     8     7    1
   115    22    24   am
   116    84    87    1
   117    84    85    1
   118    88    87    1
   119    39    35   am
   120    86    85    2
   121    24    25    1
   122    85    90   am
   123     4     3    2
   124     7     3   am
   125    35    36    2
   126    35    34    1
   127     3     2    1
   128    97    95   am
   129    38    37    1
   130    25    26    1
   131    25    28    1
   132    90    91    1
   133    26    27    2
   134    26    33   am
   135    33    34    1
   136    34    37    1
   137    95    96    2
   138    95    94    1
   139     2     1    1
   140     2     5    1
   141    29    28    1
   142    29    30    1
   143    91    94    1
   144    91    92    1
   145     6     5    1
   146    32    31    1
   147    92    93    2
   148    30    31    1
   149   105   103   ar
   150   104   103   ar
   151   103   102    1
   152   102    99    1
   153   107   106    1
   154   107   108    1
   155   107   110    1
   156   108   109    2
   157    99   100    1
   158    99    98    1
   159   100   101    2
