@<TRIPOS>MOLECULE
tmp/3clxA02.pdb
 104 104 0 0 0
SMALL
GASTEIGER

@<TRIPOS>ATOM
      1  N         14.4760   31.0720   -6.2940 N.3     5  ARG5       -0.1245
      2  CA        14.6480   31.8380   -5.0700 C.3     5  ARG5        0.1563
      3  C         13.7940   31.2850   -3.9310 C.2     5  ARG5        0.2260
      4  O         13.7840   31.8150   -2.8200 O.2     5  ARG5       -0.2867
      5  CB        14.4160   33.3330   -5.3150 C.3     5  ARG5        0.0307
      6  CG        15.7070   34.0780   -5.6690 C.3     5  ARG5        0.0489
      7  CD        15.4900   35.5750   -5.8460 C.3     5  ARG5        0.2205
      8  NE        14.7560   36.1670   -4.7200 N.pl3   5  ARG5       -0.0865
      9  CZ        14.3430   37.4350   -4.6520 C.cat   5  ARG5        0.5346
     10  NH1       14.5850   38.2940   -5.6420 N.pl3   5  ARG5        0.1354
     11  NH2       13.6810   37.8440   -3.5770 N.pl3   5  ARG5        0.1354
     12  N          3.0750   34.5030   -5.1870 N.3    46  LYS46      -0.1245
     13  CA         4.4960   34.7490   -5.4500 C.3    46  LYS46       0.1561
     14  C          5.0810   33.6560   -6.3070 C.2    46  LYS46       0.2260
     15  O          4.8530   32.4820   -6.0500 O.2    46  LYS46      -0.2867
     16  CB         5.2680   34.8450   -4.1330 C.3    46  LYS46       0.0271
     17  CG         6.3620   35.9020   -4.1010 C.3    46  LYS46       0.0035
     18  CD         6.5470   36.4550   -2.6700 C.3    46  LYS46       0.0206
     19  CE         7.9080   37.1360   -2.4960 C.3    46  LYS46       0.1093
     20  NZ         7.8920   38.2120   -1.4480 N.3    46  LYS46      -0.1314
     21  N         11.6550   33.4200   -9.7250 N.3    50  CYS50      -0.1221
     22  CA        12.1100   34.8120   -9.6970 C.3    50  CYS50       0.1808
     23  C         11.8690   35.4630   -8.3270 C.2    50  CYS50       0.2602
     24  O         12.6650   36.2940   -7.8720 O.2    50  CYS50      -0.2717
     25  CB        11.4170   35.6240  -10.8030 C.3    50  CYS50       0.0970
     26  SG         9.5730   35.5770  -10.8000 S.3    50  CYS50      -0.0800
     27  N         10.7630   35.0820   -7.6860 N.am   51  GLY51      -0.1942
     28  CA        10.4000   35.6250   -6.3820 C.3    51  GLY51       0.2014
     29  C          9.4870   36.8230   -6.5140 C.2    51  GLY51       0.2639
     30  O          9.2920   37.5790   -5.5630 O.2    51  GLY51      -0.2714
     31  N          8.9370   37.0070   -7.7050 N.am   52  GLY52      -0.1939
     32  CA         8.0560   38.1440   -7.9540 C.3    52  GLY52       0.2014
     33  C          6.6570   37.8930   -7.4330 C.2    52  GLY52       0.2639
     34  O          6.1190   36.7990   -7.5910 O.2    52  GLY52      -0.2714
     35  N          6.0740   38.9120   -6.8130 N.am   53  GLY53      -0.1954
     36  CA         4.7590   38.7980   -6.2000 C.3    53  GLY53       0.1869
     37  C          3.7280   39.6050   -6.9470 C.2    53  GLY53       0.2309
     38  O          4.0210   40.6890   -7.4430 O.2    53  GLY53      -0.2863
     39  N          3.9220   40.2040  -17.9330 N.3    69  LYS69      -0.1231
     40  CA         3.7220   41.6490  -17.7790 C.3    69  LYS69       0.1693
     41  C          4.6720   42.2940  -16.7720 C.2    69  LYS69       0.2592
     42  O          5.2570   43.3350  -17.0660 O.2    69  LYS69      -0.2718
     43  CB         2.2830   41.9360  -17.3380 C.3    69  LYS69       0.0285
     44  CG         1.7680   43.3250  -17.6430 C.3    69  LYS69       0.0035
     45  CD         0.4440   43.5570  -16.9410 C.3    69  LYS69       0.0206
     46  CE        -0.4450   44.5510  -17.6830 C.3    69  LYS69       0.1093
     47  NZ         0.3000   45.6900  -18.3110 N.3    69  LYS69      -0.1314
     48  N          4.8240   41.6750  -15.5970 N.am   70  TRP70      -0.1962
     49  CA         5.5230   42.2950  -14.4680 C.3    70  TRP70       0.1771
     50  C          6.9260   41.7190  -14.1620 C.2    70  TRP70       0.2620
     51  O          7.7700   42.4120  -13.5800 O.2    70  TRP70      -0.2715
     52  CB         4.6620   42.2230  -13.2160 C.3    70  TRP70       0.0590
     53  CG         3.3180   42.8770  -13.3610 C.ar   70  TRP70       0.0006
     54  CD1        2.1020   42.2490  -13.4570 C.ar   70  TRP70       0.0946
     55  CD2        3.0460   44.2890  -13.4270 C.ar   70  TRP70       0.0152
     56  NE1        1.0950   43.1810  -13.5700 N.ar   70  TRP70      -0.2442
     57  CE2        1.6420   44.4380  -13.5580 C.ar   70  TRP70       0.0810
     58  CE3        3.8510   45.4400  -13.3920 C.ar   70  TRP70       0.0012
     59  CZ2        1.0240   45.6920  -13.6550 C.ar   70  TRP70       0.0191
     60  CZ3        3.2410   46.6910  -13.4890 C.ar   70  TRP70       0.0001
     61  CH2        1.8330   46.8060  -13.6180 C.ar   70  TRP70       0.0015
     62  N          7.1720   40.4560  -14.5200 N.am   71  TYR71      -0.1960
     63  CA         8.5050   39.8760  -14.3270 C.3    71  TYR71       0.1756
     64  C          8.9730   39.1060  -15.5590 C.2    71  TYR71       0.2461
     65  O          9.2100   37.8880  -15.4930 O.2    71  TYR71      -0.2730
     66  CB         8.5660   39.0060  -13.0650 C.3    71  TYR71       0.0574
     67  CG         7.9590   39.6680  -11.8550 C.ar   71  TYR71      -0.0198
     68  CD1        6.6090   39.4530  -11.5130 C.ar   71  TYR71      -0.0009
     69  CD2        8.7180   40.5240  -11.0610 C.ar   71  TYR71      -0.0009
     70  CE1        6.0430   40.0750  -10.4020 C.ar   71  TYR71       0.0417
     71  CE2        8.1670   41.1480   -9.9480 C.ar   71  TYR71       0.0417
     72  CZ         6.8310   40.9270   -9.6250 C.ar   71  TYR71       0.1957
     73  OH         6.3000   41.5640   -8.5260 O.3    71  TYR71      -0.2866
     74  N          9.1280   39.8230  -16.6900 N.am   72  PRO72      -0.2716
     75  CA         9.5240   39.2360  -17.9610 C.3    72  PRO72       0.1536
     76  C         10.8650   38.5290  -17.8750 C.2    72  PRO72       0.2599
     77  O         11.1330   37.6400  -18.6870 O.2    72  PRO72      -0.2715
     78  CB         9.6370   40.4500  -18.8880 C.3    72  PRO72       0.0310
     79  CG         9.7850   41.6270  -17.9840 C.3    72  PRO72       0.0237
     80  CD         8.9350   41.2770  -16.8120 C.3    72  PRO72       0.0939
     81  N         11.6820   38.9220  -16.8910 N.am   73  GLY73      -0.1955
     82  CA        13.0040   38.3580  -16.6790 C.3    73  GLY73       0.1869
     83  C         13.0890   37.0000  -15.9980 C.2    73  GLY73       0.2309
     84  O         14.1850   36.4260  -15.9160 O.2    73  GLY73      -0.2863
     85  N          4.0390   42.3990  -23.9640 N.3    90  HIS90      -0.1241
     86  CA         4.4750   43.8000  -23.8440 C.3    90  HIS90       0.1621
     87  C          4.1730   44.6570  -25.0800 C.2    90  HIS90       0.2264
     88  O          3.8080   45.8370  -24.9680 O.2    90  HIS90      -0.2867
     89  CB         5.9470   43.8730  -23.4210 C.3    90  HIS90       0.0745
     90  CG         6.1460   43.6670  -21.9470 C.ar   90  HIS90       0.0817
     91  ND1        6.4770   42.4460  -21.4030 N.ar   90  HIS90      -0.2268
     92  CD2        6.0100   44.5170  -20.9030 C.ar   90  HIS90       0.1154
     93  CE1        6.5540   42.5550  -20.0880 C.ar   90  HIS90       0.1986
     94  NE2        6.2750   43.8020  -19.7600 N.ar   90  HIS90      -0.2212
     95  N          0.4440   45.2670  -24.9860 N.3    93  HIS93      -0.1241
     96  CA         0.1370   46.2990  -24.0080 C.3    93  HIS93       0.1621
     97  C          0.4740   47.6670  -24.5900 C.2    93  HIS93       0.2264
     98  O         -0.3540   48.5840  -24.5470 O.2    93  HIS93      -0.2867
     99  CB         0.8540   46.0510  -22.6690 C.3    93  HIS93       0.0745
    100  CG         0.5790   47.1020  -21.6340 C.ar   93  HIS93       0.0817
    101  ND1        1.5750   47.8720  -21.0700 N.ar   93  HIS93      -0.2268
    102  CD2       -0.5840   47.5310  -21.0820 C.ar   93  HIS93       0.1154
    103  CE1        1.0410   48.7160  -20.2020 C.ar   93  HIS93       0.1986
    104  NE2       -0.2680   48.5330  -20.1950 N.ar   93  HIS93      -0.2212
@<TRIPOS>BOND
     1    87    88    2
     2    87    86    1
     3    95    96    1
     4    97    98    2
     5    97    96    1
     6    96    99    1
     7    85    86    1
     8    86    89    1
     9    89    90    1
    10    99   100    1
    11    90    91   ar
    12    90    92   ar
    13   100   102   ar
    14   100   101   ar
    15    91    93   ar
    16   102   104   ar
    17   101   103   ar
    18    92    94   ar
    19   103   104   ar
    20    93    94   ar
    21    78    79    1
    22    78    75    1
    23    77    76    2
    24    47    46    1
    25    79    80    1
    26    75    76    1
    27    75    74    1
    28    39    40    1
    29    76    81   am
    30    40    43    1
    31    40    41    1
    32    46    45    1
    33    44    43    1
    34    44    45    1
    35    42    41    2
    36    81    82    1
    37    80    74    1
    38    41    48   am
    39    74    64   am
    40    82    83    1
    41    83    84    2
    42    48    49    1
    43    64    65    2
    44    64    63    1
    45    62    63    1
    46    62    50   am
    47    49    50    1
    48    49    52    1
    49    63    66    1
    50    50    51    2
    51    59    61   ar
    52    59    57   ar
    53    61    60   ar
    54    56    57   ar
    55    56    54   ar
    56    57    55   ar
    57    60    58   ar
    58    54    53   ar
    59    55    58   ar
    60    55    53   ar
    61    53    52    1
    62    66    67    1
    63    67    68   ar
    64    67    69   ar
    65    68    70   ar
    66    69    71   ar
    67    25    26    1
    68    25    22    1
    69    70    72   ar
    70    71    72   ar
    71    21    22    1
    72    22    23    1
    73    72    73    1
    74    23    24    2
    75    23    27   am
    76    32    31    1
    77    32    33    1
    78    31    29   am
    79    27    28    1
    80    34    33    2
    81    38    37    2
    82    33    35   am
    83    37    36    1
    84    35    36    1
    85    29    28    1
    86    29    30    2
    87    14    15    2
    88    14    13    1
    89     1     2    1
    90     7     6    1
    91     7     8    1
    92     6     5    1
    93    10     9    1
    94    13    12    1
    95    13    16    1
    96     5     2    1
    97     2     3    1
    98     8     9    2
    99     9    11    1
   100    16    17    1
   101    17    18    1
   102     3     4    2
   103    18    19    1
   104    19    20    1
