@<TRIPOS>MOLECULE
tmp/3cm2D00.pdb
 136 135 0 0 0
SMALL
GASTEIGER

@<TRIPOS>ATOM
      1  N         -2.6240  -15.2650   87.4920 N.3    40  LEU40      -0.1245
      2  CA        -3.1810  -15.2310   86.1320 C.3    40  LEU40       0.1561
      3  C         -2.1310  -14.9530   85.0540 C.2    40  LEU40       0.2260
      4  O         -2.2410  -15.4580   83.9380 O.2    40  LEU40      -0.2867
      5  CB        -4.3400  -14.2310   86.0050 C.3    40  LEU40       0.0270
      6  CG        -5.7590  -14.5790   86.4930 C.3    40  LEU40       0.0019
      7  CD1       -6.7430  -13.5290   85.9920 C.3    40  LEU40       0.0001
      8  CD2       -6.2180  -15.9510   86.0380 C.3    40  LEU40       0.0001
      9  N         -2.7410  -10.1390   89.6160 N.3    45  LYS45      -0.1231
     10  CA        -4.0280  -10.8280   89.6560 C.3    45  LYS45       0.1693
     11  C         -3.8540  -12.2750   90.0980 C.2    45  LYS45       0.2592
     12  O         -3.0430  -13.0170   89.5360 O.2    45  LYS45      -0.2718
     13  CB        -4.7330  -10.7900   88.2930 C.3    45  LYS45       0.0285
     14  CG        -5.2160   -9.4170   87.8700 C.3    45  LYS45       0.0035
     15  CD        -6.2400   -9.4690   86.7590 C.3    45  LYS45       0.0206
     16  CE        -6.4460   -8.0750   86.1900 C.3    45  LYS45       0.1093
     17  NZ        -7.6710   -7.9680   85.3430 N.3    45  LYS45      -0.1314
     18  N         -4.6100  -12.6520   91.1220 N.am   46  VAL46      -0.1966
     19  CA        -4.6640  -14.0220   91.6020 C.3    46  VAL46       0.1727
     20  C         -6.1280  -14.3810   91.7890 C.2    46  VAL46       0.2616
     21  O         -6.9750  -13.4980   91.9630 O.2    46  VAL46      -0.2715
     22  CB        -3.8910  -14.2240   92.9440 C.3    46  VAL46       0.0290
     23  CG1       -2.3830  -13.9970   92.7620 C.3    46  VAL46       0.0023
     24  CG2       -4.4360  -13.3200   94.0400 C.3    46  VAL46       0.0023
     25  N         -6.4210  -15.6750   91.7570 N.am   47  LYS47      -0.1977
     26  CA        -7.7860  -16.1630   91.8690 C.3    47  LYS47       0.1596
     27  C         -7.7930  -17.4640   92.6890 C.2    47  LYS47       0.2287
     28  O         -6.8730  -18.2800   92.5750 O.2    47  LYS47      -0.2864
     29  CB        -8.3700  -16.3590   90.4590 C.3    47  LYS47       0.0298
     30  CG        -9.8620  -16.6860   90.3960 C.3    47  LYS47       0.0038
     31  CD       -10.4680  -16.3790   89.0190 C.3    47  LYS47       0.0206
     32  CE       -11.0320  -14.9540   88.9680 C.3    47  LYS47       0.1093
     33  NZ       -11.7660  -14.6400   87.7020 N.3    47  LYS47      -0.1314
     34  N        -11.2180  -13.3120   93.0460 N.3    54  GLY54      -0.1210
     35  CA       -10.0230  -12.7570   92.4370 C.3    54  GLY54       0.1956
     36  C         -9.5410  -11.5220   93.1630 C.2    54  GLY54       0.2612
     37  O        -10.3470  -10.7350   93.6670 O.2    54  GLY54      -0.2717
     38  N         -8.2220  -11.3420   93.1990 N.am   55  LEU55      -0.1965
     39  CA        -7.6040  -10.2480   93.9370 C.3    55  LEU55       0.1728
     40  C         -6.4150   -9.6600   93.1820 C.2    55  LEU55       0.2617
     41  O         -5.5100  -10.3970   92.7670 O.2    55  LEU55      -0.2715
     42  CB        -7.1540  -10.7490   95.3200 C.3    55  LEU55       0.0311
     43  CG        -7.9730  -10.5290   96.6110 C.3    55  LEU55       0.0022
     44  CD1       -9.3770   -9.9290   96.4490 C.3    55  LEU55       0.0001
     45  CD2       -8.0380  -11.7960   97.4420 C.3    55  LEU55       0.0001
     46  N         -6.4430   -8.3370   93.0030 N.am   56  THR56      -0.1937
     47  CA        -5.3170   -7.5530   92.4740 C.3    56  THR56       0.2028
     48  C         -4.9210   -6.4610   93.4340 C.2    56  THR56       0.2642
     49  O         -5.5890   -6.2330   94.4460 O.2    56  THR56      -0.2714
     50  CB        -5.6740   -6.7410   91.2000 C.3    56  THR56       0.1808
     51  OG1       -7.0770   -6.8100   90.9340 O.3    56  THR56      -0.2208
     52  CG2       -4.8780   -7.1930   90.0010 C.3    56  THR56       0.0379
     53  N         -3.8610   -5.7460   93.0570 N.am   57  ASP57      -0.1957
     54  CA        -3.4600   -4.5090   93.7140 C.3    57  ASP57       0.1840
     55  C         -3.1870   -4.7790   95.1870 C.2    57  ASP57       0.2622
     56  O         -3.7460   -4.1340   96.0710 O.2    57  ASP57      -0.2715
     57  CB        -4.5230   -3.4210   93.5040 C.3    57  ASP57       0.1450
     58  CG        -4.0690   -2.0550   93.9750 C.2    57  ASP57       0.3671
     59  OD1       -4.9390   -1.2700   94.4100 O.co2  57  ASP57      -0.2456
     60  OD2       -2.8530   -1.7620   93.9140 O.co2  57  ASP57      -0.2456
     61  N         -2.3280   -5.7690   95.4200 N.am   58  TRP58      -0.1960
     62  CA        -1.8890   -6.1360   96.7530 C.3    58  TRP58       0.1771
     63  C         -0.9870   -5.0570   97.3370 C.2    58  TRP58       0.2619
     64  O          0.1010   -4.7970   96.8190 O.2    58  TRP58      -0.2715
     65  CB        -1.1470   -7.4740   96.7210 C.3    58  TRP58       0.0590
     66  CG        -2.0260   -8.6580   96.4490 C.ar   58  TRP58       0.0006
     67  CD1       -2.4640   -9.0870   95.2300 C.ar   58  TRP58       0.0946
     68  CD2       -2.5630   -9.5760   97.4130 C.ar   58  TRP58       0.0152
     69  NE1       -3.2500  -10.2070   95.3720 N.ar   58  TRP58      -0.2442
     70  CE2       -3.3260  -10.5310   96.7000 C.ar   58  TRP58       0.0810
     71  CE3       -2.4820   -9.6810   98.8100 C.ar   58  TRP58       0.0012
     72  CZ2       -4.0000  -11.5800   97.3350 C.ar   58  TRP58       0.0191
     73  CZ3       -3.1530  -10.7220   99.4410 C.ar   58  TRP58       0.0001
     74  CH2       -3.9020  -11.6600   98.7010 C.ar   58  TRP58       0.0015
     75  N         -1.4580   -4.4230   98.4070 N.am   59  LYS59      -0.1977
     76  CA        -0.6140   -3.5540   99.2230 C.3    59  LYS59       0.1596
     77  C          0.4630   -4.4060   99.9000 C.2    59  LYS59       0.2287
     78  O          0.2010   -5.5500  100.2780 O.2    59  LYS59      -0.2864
     79  CB        -1.4540   -2.7830  100.2440 C.3    59  LYS59       0.0298
     80  CG        -2.5230   -1.8780   99.6150 C.3    59  LYS59       0.0038
     81  CD        -1.9280   -0.9750   98.5310 C.3    59  LYS59       0.0206
     82  CE        -2.9930   -0.4650   97.5730 C.3    59  LYS59       0.1093
     83  NZ        -2.3890    0.0540   96.3130 N.3    59  LYS59      -0.1314
     84  N         -0.2450   -6.7980  103.0020 N.3    62  GLU62      -0.1245
     85  CA        -1.4610   -7.6080  103.0970 C.3    62  GLU62       0.1567
     86  C         -1.2460   -9.1170  103.1270 C.2    62  GLU62       0.2260
     87  O         -0.3140   -9.6390  102.5200 O.2    62  GLU62      -0.2867
     88  CB        -2.4400   -7.2190  101.9960 C.3    62  GLU62       0.0388
     89  CG        -3.2230   -5.9640  102.3300 C.3    62  GLU62       0.1160
     90  CD        -3.8680   -5.3290  101.1190 C.2    62  GLU62       0.3649
     91  OE1       -3.4670   -5.6550   99.9820 O.co2  62  GLU62      -0.2457
     92  OE2       -4.7700   -4.4870  101.3050 O.co2  62  GLU62      -0.2457
     93  N         -7.1700  -11.4660  103.4190 N.3    67  GLN67      -0.1245
     94  CA        -7.8430  -10.9190  102.2420 C.3    67  GLN67       0.1566
     95  C         -8.9000  -11.8770  101.7130 C.2    67  GLN67       0.2260
     96  O        -10.0040  -11.4590  101.3650 O.2    67  GLN67      -0.2867
     97  CB        -6.8400  -10.5710  101.1460 C.3    67  GLN67       0.0367
     98  CG        -5.9360   -9.4070  101.4940 C.3    67  GLN67       0.0905
     99  CD        -6.6770   -8.2700  102.1560 C.2    67  GLN67       0.2608
    100  OE1       -7.5740   -7.6500  101.5690 O.2    67  GLN67      -0.2717
    101  NE2       -6.3050   -7.9870  103.3960 N.am   67  GLN67      -0.0878
    102  N        -11.8890  -11.6440  104.1460 N.3    70  LYS70      -0.1231
    103  CA       -12.5960  -10.3710  104.0340 C.3    70  LYS70       0.1693
    104  C        -13.4910  -10.3160  102.7980 C.2    70  LYS70       0.2592
    105  O        -14.6780  -10.0180  102.8950 O.2    70  LYS70      -0.2718
    106  CB       -11.5820   -9.2310  103.9910 C.3    70  LYS70       0.0285
    107  CG       -12.1730   -7.8570  103.7150 C.3    70  LYS70       0.0035
    108  CD       -11.0660   -6.8830  103.3150 C.3    70  LYS70       0.0206
    109  CE       -11.6270   -5.5250  102.9340 C.3    70  LYS70       0.1093
    110  NZ       -10.5200   -4.5510  102.6820 N.3    70  LYS70      -0.1314
    111  N        -12.9090  -10.6230  101.6400 N.am   71  TRP71      -0.1962
    112  CA       -13.6080  -10.5130  100.3660 C.3    71  TRP71       0.1771
    113  C        -14.5070  -11.6980  100.0760 C.2    71  TRP71       0.2619
    114  O        -15.5990  -11.5200   99.5500 O.2    71  TRP71      -0.2715
    115  CB       -12.6110  -10.3170   99.2160 C.3    71  TRP71       0.0590
    116  CG       -11.9210   -8.9920   99.2380 C.ar   71  TRP71       0.0006
    117  CD1      -10.6980   -8.7110   99.7740 C.ar   71  TRP71       0.0946
    118  CD2      -12.4160   -7.7610   98.7070 C.ar   71  TRP71       0.0152
    119  NE1      -10.3970   -7.3750   99.6090 N.ar   71  TRP71      -0.2442
    120  CE2      -11.4370   -6.7710   98.9560 C.ar   71  TRP71       0.0810
    121  CE3      -13.5910   -7.3970   98.0360 C.ar   71  TRP71       0.0012
    122  CZ2      -11.5980   -5.4420   98.5630 C.ar   71  TRP71       0.0191
    123  CZ3      -13.7530   -6.0720   97.6450 C.ar   71  TRP71       0.0001
    124  CH2      -12.7620   -5.1120   97.9140 C.ar   71  TRP71       0.0015
    125  N        -14.0540  -12.9050  100.4080 N.am   72  TYR72      -0.1974
    126  CA       -14.7720  -14.1210   99.9930 C.3    72  TYR72       0.1639
    127  C        -14.9750  -15.1260  101.1340 C.2    72  TYR72       0.2290
    128  O        -14.5330  -16.2860  101.0380 O.2    72  TYR72      -0.2864
    129  CB       -14.0850  -14.7770   98.7750 C.3    72  TYR72       0.0560
    130  CG       -13.7100  -13.7830   97.6980 C.ar   72  TYR72      -0.0198
    131  CD1      -12.3820  -13.3880   97.5200 C.ar   72  TYR72      -0.0009
    132  CD2      -14.6880  -13.2120   96.8740 C.ar   72  TYR72      -0.0009
    133  CE1      -12.0370  -12.4640   96.5420 C.ar   72  TYR72       0.0417
    134  CE2      -14.3550  -12.2840   95.8990 C.ar   72  TYR72       0.0417
    135  CZ       -13.0290  -11.9130   95.7370 C.ar   72  TYR72       0.1957
    136  OH       -12.6950  -10.9940   94.7680 O.3    72  TYR72      -0.2866
@<TRIPOS>BOND
     1     4     3    2
     2     3     2    1
     3    17    16    1
     4     7     6    1
     5     5     2    1
     6     5     6    1
     7     8     6    1
     8     2     1    1
     9    16    15    1
    10    15    14    1
    11    33    32    1
    12    14    13    1
    13    13    10    1
    14    32    31    1
    15    31    30    1
    16    12    11    2
    17     9    10    1
    18    10    11    1
    19    52    50    1
    20    11    18   am
    21    30    29    1
    22    29    26    1
    23    51    50    1
    24    18    19    1
    25    50    47    1
    26    19    20    1
    27    19    22    1
    28    25    20   am
    29    25    26    1
    30    20    21    2
    31    26    27    1
    32    35    34    1
    33    35    36    1
    34    47    46    1
    35    47    48    1
    36    28    27    2
    37    23    22    1
    38    41    40    2
    39    22    24    1
    40    46    40   am
    41    53    48   am
    42    53    54    1
    43    36    38   am
    44    36    37    2
    45    40    39    1
    46    38    39    1
    47    48    49    2
    48    57    54    1
    49    57    58    1
    50    54    55    1
    51    60    58   ar
    52    39    42    1
    53    58    59   ar
    54   136   135    1
    55    55    61   am
    56    55    56    2
    57    67    69   ar
    58    67    66   ar
    59    42    43    1
    60    69    70   ar
    61    61    62    1
    62   135   134   ar
    63   135   133   ar
    64   134   132   ar
    65    83    82    1
    66    66    65    1
    67    66    68   ar
    68    44    43    1
    69   133   131   ar
    70    43    45    1
    71    70    72   ar
    72    70    68   ar
    73    65    62    1
    74    62    63    1
    75    64    63    2
    76   132   130   ar
    77    72    74   ar
    78    63    75   am
    79    68    71   ar
    80   131   130   ar
    81    82    81    1
    82   123   124   ar
    83   123   121   ar
    84   130   129    1
    85   124   122   ar
    86   121   118   ar
    87    75    76    1
    88    81    80    1
    89   122   120   ar
    90    74    73   ar
    91   118   120   ar
    92   118   116   ar
    93   129   126    1
    94    71    73   ar
    95   120   119   ar
    96   115   116    1
    97   115   112    1
    98    76    77    1
    99    76    79    1
   100   116   117   ar
   101   114   113    2
   102   119   117   ar
   103    80    79    1
   104    77    78    2
   105    91    90   ar
   106   126   125    1
   107   126   127    1
   108   113   112    1
   109   113   125   am
   110   112   111    1
   111   128   127    2
   112    90    92   ar
   113    90    89    1
   114    97    98    1
   115    97    94    1
   116    96    95    2
   117    98    99    1
   118   100    99    2
   119   111   104   am
   120    95    94    1
   121    88    89    1
   122    88    85    1
   123    99   101   am
   124    94    93    1
   125    87    86    2
   126   110   109    1
   127   104   105    2
   128   104   103    1
   129   109   108    1
   130    84    85    1
   131    85    86    1
   132   108   107    1
   133   107   106    1
   134   106   103    1
   135   103   102    1
