@<TRIPOS>MOLECULE
tmp/3cmbC00.pdb
 226 209 0 0 0
SMALL
GASTEIGER

@<TRIPOS>ATOM
      1  N         42.2290   14.7930   88.2010 N.3    25  THR25      -0.1203
      2  CA        41.6480   15.3550   86.9640 C.3    25  THR25       0.1994
      3  C         42.7100   16.0960   86.1340 C.2    25  THR25       0.2618
      4  O         43.4660   16.9220   86.6330 O.2    25  THR25      -0.2717
      5  CB        40.4940   16.3200   87.2770 C.3    25  THR25       0.1784
      6  OG1       39.4050   15.5840   87.8270 O.3    25  THR25      -0.2211
      7  CG2       40.0150   17.0790   86.0200 C.3    25  THR25       0.0376
      8  N         42.7520   15.7580   84.8590 N.am   26  LEU26      -0.1965
      9  CA        43.7570   16.2880   83.9380 C.3    26  LEU26       0.1728
     10  C         43.1950   17.1350   82.7730 C.2    26  LEU26       0.2616
     11  O         42.0730   16.9110   82.2730 O.2    26  LEU26      -0.2715
     12  CB        44.5540   15.1650   83.3080 C.3    26  LEU26       0.0311
     13  CG        45.2890   14.1890   84.2130 C.3    26  LEU26       0.0022
     14  CD1       46.0430   13.2270   83.3360 C.3    26  LEU26       0.0001
     15  CD2       46.2000   14.8960   85.2140 C.3    26  LEU26       0.0001
     16  N         44.0020   18.1080   82.3800 N.am   27  VAL27      -0.1977
     17  CA        43.8090   18.7780   81.0820 C.3    27  VAL27       0.1596
     18  C         44.9720   18.3170   80.2610 C.2    27  VAL27       0.2287
     19  O         46.1130   18.4700   80.6880 O.2    27  VAL27      -0.2864
     20  CB        43.8320   20.3250   81.1440 C.3    27  VAL27       0.0276
     21  CG1       43.8610   20.9300   79.6990 C.3    27  VAL27       0.0022
     22  CG2       42.6680   20.8680   81.9990 C.3    27  VAL27       0.0022
     23  N         46.4540   18.2930   76.1600 N.3    29  GLN29      -0.1245
     24  CA        46.3020   18.9240   74.8690 C.3    29  GLN29       0.1566
     25  C         47.6580   19.0930   74.1490 C.2    29  GLN29       0.2260
     26  O         48.7280   19.0690   74.7640 O.2    29  GLN29      -0.2867
     27  CB        45.6430   20.2970   75.0770 C.3    29  GLN29       0.0367
     28  CG        46.5500   21.2820   75.8030 C.3    29  GLN29       0.0905
     29  CD        45.7940   22.4020   76.5150 C.2    29  GLN29       0.2608
     30  OE1       44.5590   22.4700   76.4410 O.2    29  GLN29      -0.2717
     31  NE2       46.5220   23.2520   77.2230 N.am   29  GLN29      -0.0878
     32  N         53.1340   27.4930   71.1210 N.3    33  ALA33      -0.1245
     33  CA        53.2370   28.8100   71.7000 C.3    33  ALA33       0.1562
     34  C         54.2990   29.6750   71.0110 C.2    33  ALA33       0.2260
     35  O         55.4400   29.2320   70.7910 O.2    33  ALA33      -0.2867
     36  CB        53.4740   28.6990   73.1890 C.3    33  ALA33       0.0290
     37  N         56.0530   32.8980   72.1760 N.3    35  SER35      -0.1217
     38  CA        56.2920   33.5540   73.4680 C.3    35  SER35       0.1889
     39  C         57.3020   34.6960   73.3690 C.2    35  SER35       0.2288
     40  O         58.4580   34.4830   73.0140 O.2    35  SER35      -0.2866
     41  CB        56.7680   32.4900   74.4760 C.3    35  SER35       0.2089
     42  OG        57.0860   33.0210   75.7430 O.3    35  SER35      -0.2183
     43  N         52.1910   35.9980   75.1410 N.3    63  ALA63      -0.1245
     44  CA        52.2740   34.7260   74.3810 C.3    63  ALA63       0.1562
     45  C         50.9700   34.3580   73.7120 C.2    63  ALA63       0.2260
     46  O         49.9380   34.3270   74.3320 O.2    63  ALA63      -0.2867
     47  CB        52.7390   33.5510   75.2680 C.3    63  ALA63       0.0290
     48  N         49.0980   31.1790   72.2750 N.3    65  ASN65      -0.1240
     49  CA        49.0390   29.7090   72.3660 C.3    65  ASN65       0.1653
     50  C         47.8590   29.1780   71.5850 C.2    65  ASN65       0.2266
     51  O         46.7870   29.7660   71.5940 O.2    65  ASN65      -0.2867
     52  CB        48.8790   29.1760   73.7980 C.3    65  ASN65       0.1155
     53  CG        50.0320   29.5180   74.7320 C.2    65  ASN65       0.2627
     54  OD1       50.6910   28.6250   75.1980 O.2    65  ASN65      -0.2716
     55  ND2       50.2030   30.7960   75.0640 N.am   65  ASN65      -0.0877
     56  N         45.8560   25.5320   71.3430 N.3    67  PHE67      -0.1241
     57  CA        45.6550   24.2380   71.9770 C.3    67  PHE67       0.1605
     58  C         44.7410   23.4040   71.1020 C.2    67  PHE67       0.2264
     59  O         43.6620   23.8470   70.6690 O.2    67  PHE67      -0.2867
     60  CB        44.9780   24.4140   73.3200 C.3    67  PHE67       0.0534
     61  CG        45.7700   25.2030   74.3400 C.ar   67  PHE67      -0.0203
     62  CD1       47.1570   25.2270   74.3920 C.ar   67  PHE67      -0.0042
     63  CD2       45.0890   25.8290   75.3290 C.ar   67  PHE67      -0.0042
     64  CE1       47.8020   25.9160   75.3920 C.ar   67  PHE67      -0.0003
     65  CE2       45.7340   26.5470   76.3080 C.ar   67  PHE67      -0.0003
     66  CZ        47.0990   26.5870   76.3350 C.ar   67  PHE67      -0.0000
     67  N         39.2820   17.7480   77.6220 N.3    72  TRP72      -0.1241
     68  CA        38.0790   18.2440   78.3260 C.3    72  TRP72       0.1605
     69  C         37.0700   18.9140   77.4000 C.2    72  TRP72       0.2264
     70  O         35.8700   19.1070   77.7450 O.2    72  TRP72      -0.2867
     71  CB        38.4630   19.1520   79.5090 C.3    72  TRP72       0.0550
     72  CG        38.9770   20.4880   79.1430 C.ar   72  TRP72       0.0003
     73  CD1       40.2680   20.8060   78.8360 C.ar   72  TRP72       0.0946
     74  CD2       38.2280   21.6860   79.0360 C.ar   72  TRP72       0.0152
     75  NE1       40.3660   22.1180   78.5280 N.ar   72  TRP72      -0.2442
     76  CE2       39.1170   22.6880   78.6350 C.ar   72  TRP72       0.0810
     77  CE3       36.8770   22.0060   79.2170 C.ar   72  TRP72       0.0012
     78  CZ2       38.7210   24.0000   78.4250 C.ar   72  TRP72       0.0191
     79  CZ3       36.4850   23.3040   79.0140 C.ar   72  TRP72       0.0001
     80  CH2       37.4050   24.2950   78.6240 C.ar   72  TRP72       0.0015
     81  N         41.2680   25.7440   70.8190 N.3    78  TYR78      -0.1241
     82  CA        41.1260   27.1990   70.9260 C.3    78  TYR78       0.1605
     83  C         42.4470   27.8810   70.9570 C.2    78  TYR78       0.2264
     84  O         43.4540   27.2430   71.1720 O.2    78  TYR78      -0.2867
     85  CB        40.2320   27.6140   72.1030 C.3    78  TYR78       0.0534
     86  CG        40.7630   27.3080   73.4960 C.ar   78  TYR78      -0.0201
     87  CD1       40.4640   26.0990   74.1050 C.ar   78  TYR78      -0.0009
     88  CD2       41.5110   28.2540   74.2320 C.ar   78  TYR78      -0.0009
     89  CE1       40.8780   25.8100   75.3890 C.ar   78  TYR78       0.0417
     90  CE2       41.9480   27.9370   75.5210 C.ar   78  TYR78       0.0417
     91  CZ        41.6350   26.7280   76.0710 C.ar   78  TYR78       0.1957
     92  OH        42.0320   26.3940   77.3570 O.3    78  TYR78      -0.2866
     93  N         44.6360   31.4630   72.5310 N.3    80  LEU80      -0.1245
     94  CA        44.7460   32.4220   73.6150 C.3    80  LEU80       0.1561
     95  C         45.9540   33.3260   73.4740 C.2    80  LEU80       0.2260
     96  O         46.9600   33.0210   72.7440 O.2    80  LEU80      -0.2867
     97  CB        44.7350   31.6500   74.9530 C.3    80  LEU80       0.0270
     98  CG        46.0000   30.9460   75.4230 C.3    80  LEU80       0.0019
     99  CD1       47.0860   31.9220   75.9670 C.3    80  LEU80       0.0001
    100  CD2       45.5830   29.9840   76.5280 C.3    80  LEU80       0.0001
    101  N         48.1700   35.3140   76.2110 N.3    82  ASN82      -0.1240
    102  CA        48.5110   35.4460   77.6310 C.3    82  ASN82       0.1653
    103  C         49.3510   36.6920   77.8900 C.2    82  ASN82       0.2266
    104  O         50.3170   36.9430   77.1750 O.2    82  ASN82      -0.2867
    105  CB        49.2550   34.2100   78.0990 C.3    82  ASN82       0.1155
    106  CG        49.5700   34.2430   79.5980 C.2    82  ASN82       0.2627
    107  OD1       48.7030   34.5030   80.4290 O.2    82  ASN82      -0.2716
    108  ND2       50.8210   33.9290   79.9410 N.am   82  ASN82      -0.0877
    109  N         48.9930   37.1140   86.2510 N.3   101  THR101     -0.1218
    110  CA        48.1880   37.2570   85.0020 C.3   101  THR101      0.1862
    111  C         47.4730   38.5940   84.8930 C.2   101  THR101      0.2287
    112  O         46.5810   38.8800   85.6970 O.2   101  THR101     -0.2866
    113  CB        47.1360   36.1070   84.8710 C.3   101  THR101      0.1770
    114  OG1       47.7500   34.8330   85.0950 O.3   101  THR101     -0.2211
    115  CG2       46.4240   36.1650   83.4560 C.3   101  THR101      0.0375
    116  N         44.0570   37.5780   79.9050 N.3   104  VAL104     -0.1245
    117  CA        44.1390   36.5540   78.8770 C.3   104  VAL104      0.1561
    118  C         42.9570   36.7200   77.9460 C.2   104  VAL104      0.2260
    119  O         41.8000   36.7400   78.3760 O.2   104  VAL104     -0.2867
    120  CB        44.0660   35.1260   79.4670 C.3   104  VAL104      0.0252
    121  CG1       44.1660   34.1300   78.4060 C.3   104  VAL104      0.0019
    122  CG2       45.1450   34.7900   80.5600 C.3   104  VAL104      0.0019
    123  N         36.4660   27.9390   77.9750 N.3   111  PRO111     -0.2116
    124  CA        37.6040   28.1420   78.8700 C.3   111  PRO111      0.1372
    125  C         37.6500   29.4650   79.5970 C.2   111  PRO111      0.2244
    126  O         38.3180   29.5980   80.6250 O.2   111  PRO111     -0.2868
    127  CB        38.8270   27.9710   77.9380 C.3   111  PRO111      0.0268
    128  CG        38.3080   28.2340   76.6020 C.3   111  PRO111      0.0207
    129  CD        36.9090   27.7250   76.5890 C.3   111  PRO111      0.0892
    130  N         35.4310   28.8960   82.7800 N.3   114  GLY114     -0.1210
    131  CA        36.1690   27.9610   83.6100 C.3   114  GLY114      0.1956
    132  C         37.3460   28.6270   84.2820 C.2   114  GLY114      0.2612
    133  O         37.4980   28.5410   85.5050 O.2   114  GLY114     -0.2717
    134  N         38.1720   29.3170   83.4870 N.am  115  GLY115     -0.1956
    135  CA        39.3570   29.9960   84.0060 C.3   115  GLY115      0.1869
    136  C         39.0700   31.0300   85.0650 C.2   115  GLY115      0.2309
    137  O         39.7460   31.1310   86.0840 O.2   115  GLY115     -0.2863
    138  N         36.8300   29.1150   88.1850 N.3   118  GLN118     -0.1231
    139  CA        37.5630   28.0630   88.9240 C.3   118  GLN118      0.1698
    140  C         38.9110   28.5490   89.4770 C.2   118  GLN118      0.2592
    141  O         39.3880   28.0620   90.4990 O.2   118  GLN118     -0.2718
    142  CB        37.8010   26.8410   88.0410 C.3   118  GLN118      0.0381
    143  CG        36.5250   26.1300   87.6020 C.3   118  GLN118      0.0905
    144  CD        36.7560   24.9940   86.6620 C.2   118  GLN118      0.2608
    145  OE1       37.7760   24.9590   85.9530 O.2   118  GLN118     -0.2717
    146  NE2       35.8170   24.0510   86.6170 N.am  118  GLN118     -0.0878
    147  N         39.5070   29.5310   88.8180 N.am  119  THR119     -0.1953
    148  CA        40.8730   29.8970   89.1520 C.3   119  THR119      0.1897
    149  C         41.2770   31.3680   89.1520 C.2   119  THR119      0.2313
    150  O         42.4330   31.6730   89.3970 O.2   119  THR119     -0.2863
    151  CB        41.8570   29.0310   88.2970 C.3   119  THR119      0.1794
    152  OG1       41.5160   29.1390   86.9150 O.3   119  THR119     -0.2208
    153  CG2       41.7230   27.5670   88.6940 C.3   119  THR119      0.0378
    154  N         41.6380   33.4530   86.9080 N.3   121  ILE121     -0.1245
    155  CA        42.3340   33.8990   85.6740 C.3   121  ILE121      0.1561
    156  C         41.4670   34.9290   84.9100 C.2   121  ILE121      0.2260
    157  O         40.3180   34.6170   84.5650 O.2   121  ILE121     -0.2867
    158  CB        42.7060   32.7080   84.7230 C.3   121  ILE121      0.0252
    159  CG1       43.4100   31.5530   85.4520 C.3   121  ILE121      0.0019
    160  CG2       43.6320   33.2330   83.5740 C.3   121  ILE121      0.0019
    161  CD1       44.6350   31.9730   86.2440 C.3   121  ILE121      0.0001
    162  N         40.3840   36.0430   82.1260 N.3   123  LYS123     -0.1245
    163  CA        40.0170   35.6640   80.7320 C.3   123  LYS123      0.1561
    164  C         38.8750   36.5510   80.1930 C.2   123  LYS123      0.2260
    165  O         37.8760   36.7640   80.8700 O.2   123  LYS123     -0.2867
    166  CB        39.5890   34.1800   80.6550 C.3   123  LYS123      0.0271
    167  CG        40.4190   33.2330   81.4810 C.3   123  LYS123      0.0035
    168  CD        40.4430   31.9030   80.9010 C.3   123  LYS123      0.0206
    169  CE        41.7430   31.1030   81.2060 C.3   123  LYS123      0.1093
    170  NZ        41.4090   29.8280   80.6210 N.3   123  LYS123     -0.1314
    171  N         60.1830   25.3230   80.6650 N.3   171  PHE171     -0.1241
    172  CA        58.7310   25.3760   80.3020 C.3   171  PHE171      0.1605
    173  C         57.8610   24.4170   81.1000 C.2   171  PHE171      0.2264
    174  O         56.6270   24.5740   81.1700 O.2   171  PHE171     -0.2867
    175  CB        58.5000   25.0340   78.8160 C.3   171  PHE171      0.0534
    176  CG        58.5900   26.1960   77.9190 C.ar  171  PHE171     -0.0203
    177  CD1       59.8070   26.8370   77.7110 C.ar  171  PHE171     -0.0042
    178  CD2       57.4830   26.6680   77.2660 C.ar  171  PHE171     -0.0042
    179  CE1       59.8920   27.9130   76.8790 C.ar  171  PHE171     -0.0003
    180  CE2       57.5720   27.7520   76.4350 C.ar  171  PHE171     -0.0003
    181  CZ        58.7650   28.3850   76.2490 C.ar  171  PHE171     -0.0000
    182  N         51.3310   29.9610   87.4790 N.3   175  THR175     -0.1218
    183  CA        50.3920   30.9700   87.0360 C.3   175  THR175      0.1862
    184  C         49.5840   31.5030   88.2230 C.2   175  THR175      0.2287
    185  O         49.0410   30.7540   89.0030 O.2   175  THR175     -0.2866
    186  CB        49.4830   30.3920   85.9280 C.3   175  THR175      0.1770
    187  OG1       50.3240   29.9580   84.8430 O.3   175  THR175     -0.2211
    188  CG2       48.4390   31.4300   85.4760 C.3   175  THR175      0.0375
    189  N         47.9390   28.4920   90.0320 N.3   197  TYR197     -0.1241
    190  CA        47.7080   27.3030   89.2260 C.3   197  TYR197      0.1605
    191  C         49.0260   26.7910   88.6250 C.2   197  TYR197      0.2264
    192  O         49.5620   27.3620   87.6770 O.2   197  TYR197     -0.2867
    193  CB        46.7220   27.6570   88.0860 C.3   197  TYR197      0.0534
    194  CG        46.1170   26.4860   87.3220 C.ar  197  TYR197     -0.0201
    195  CD1       46.8500   25.3440   87.0090 C.ar  197  TYR197     -0.0009
    196  CD2       44.8010   26.5410   86.8700 C.ar  197  TYR197     -0.0009
    197  CE1       46.2950   24.2840   86.2980 C.ar  197  TYR197      0.0417
    198  CE2       44.2340   25.4640   86.1560 C.ar  197  TYR197      0.0417
    199  CZ        44.9820   24.3530   85.8730 C.ar  197  TYR197      0.1957
    200  OH        44.4610   23.3160   85.1180 O.3   197  TYR197     -0.2866
    201  N         51.3190   24.9000   86.4120 N.3   199  GLN199     -0.1231
    202  CA        51.2400   24.2570   85.0910 C.3   199  GLN199      0.1698
    203  C         52.5860   24.1640   84.4090 C.2   199  GLN199      0.2592
    204  O         53.6080   24.4310   84.9690 O.2   199  GLN199     -0.2718
    205  CB        50.2020   24.9330   84.2000 C.3   199  GLN199      0.0381
    206  CG        50.4820   26.3680   83.8930 C.3   199  GLN199      0.0905
    207  CD        49.6160   26.9030   82.7710 C.2   199  GLN199      0.2608
    208  OE1       49.3610   26.2140   81.7840 O.2   199  GLN199     -0.2717
    209  NE2       49.2030   28.1430   82.8970 N.am  199  GLN199     -0.0878
    210  N         52.5490   23.7350   83.1760 N.am  200  GLY200     -0.1957
    211  CA        53.7760   23.3850   82.4680 C.3   200  GLY200      0.1869
    212  C         53.4370   22.7500   81.1420 C.2   200  GLY200      0.2309
    213  O         52.3380   22.1810   80.9370 O.2   200  GLY200     -0.2863
    214  N         48.1810   18.7730   82.5690 N.3   251  LEU251     -0.1245
    215  CA        47.9390   19.7040   83.6830 C.3   251  LEU251      0.1561
    216  C         47.0870   19.0440   84.7480 C.2   251  LEU251      0.2260
    217  O         46.0700   18.4180   84.4780 O.2   251  LEU251     -0.2867
    218  CB        47.2210   20.9810   83.2290 C.3   251  LEU251      0.0270
    219  CG        47.7860   21.6350   81.9740 C.3   251  LEU251      0.0019
    220  CD1       47.1200   22.9670   81.7210 C.3   251  LEU251      0.0001
    221  CD2       49.2650   21.8060   82.1380 C.3   251  LEU251      0.0001
    222  N         44.5760   19.7860   86.9810 N.3   253  ALA253     -0.1245
    223  CA        43.6480   20.9120   87.1670 C.3   253  ALA253      0.1562
    224  C         43.2840   21.1390   88.6430 C.2   253  ALA253      0.2260
    225  O         43.0350   22.2690   89.0760 O.2   253  ALA253     -0.2867
    226  CB        42.4120   20.7140   86.3170 C.3   253  ALA253      0.0290
@<TRIPOS>BOND
     1    59    58    2
     2    35    34    2
     3    81    82    1
     4    82    83    1
     5    82    85    1
     6    83    84    2
     7    34    33    1
     8    58    57    1
     9    32    33    1
    10    56    57    1
    11    50    51    2
    12    50    49    1
    13    33    36    1
    14    57    60    1
    15    85    86    1
    16    37    38    1
    17    48    49    1
    18    49    52    1
    19    93    94    1
    20    96    95    2
    21    40    39    2
    22    60    61    1
    23    39    38    1
    24    38    41    1
    25    95    94    1
    26    86    87   ar
    27    86    88   ar
    28    94    97    1
    29    45    46    2
    30    45    44    1
    31    52    53    1
    32    87    89   ar
    33    25    26    2
    34    25    24    1
    35    88    90   ar
    36    61    62   ar
    37    61    63   ar
    38    44    43    1
    39    44    47    1
    40    62    64   ar
    41    41    42    1
    42    53    55   am
    43    53    54    2
    44    24    27    1
    45    24    23    1
    46    97    98    1
    47    27    28    1
    48    63    65   ar
    49    89    91   ar
    50    64    66   ar
    51    98    99    1
    52    98   100    1
    53    90    91   ar
    54    28    29    1
    55    91    92    1
    56   101   102    1
    57   181   180   ar
    58   181   179   ar
    59    65    66   ar
    60   180   178   ar
    61    30    29    2
    62    29    31   am
    63   129   128    1
    64   129   123    1
    65   128   127    1
    66   179   177   ar
    67   104   103    2
    68   178   176   ar
    69    69    70    2
    70    69    68    1
    71    67    68    1
    72   102   103    1
    73   102   105    1
    74   177   176   ar
    75   176   175    1
    76   127   124    1
    77   118   119    2
    78   118   117    1
    79   123   124    1
    80   105   106    1
    81    68    71    1
    82   121   120    1
    83    78    80   ar
    84    78    76   ar
    85    75    76   ar
    86    75    73   ar
    87    80    79   ar
    88    76    74   ar
    89   175   172    1
    90    73    72   ar
    91   124   125    1
    92   117   120    1
    93   117   116    1
    94    79    77   ar
    95    74    72   ar
    96    74    77   ar
    97    72    71    1
    98   120   122    1
    99   125   126    2
   100   106   108   am
   101   106   107    2
   102    21    20    1
   103   164   163    1
   104   164   165    2
   105    18    19    2
   106    18    17    1
   107   172   171    1
   108   172   173    1
   109   170   169    1
   110   166   163    1
   111   166   167    1
   112   163   162    1
   113   168   169    1
   114   168   167    1
   115   213   212    2
   116    17    20    1
   117    17    16    1
   118   173   174    2
   119   212   211    1
   120    20    22    1
   121   220   219    1
   122   208   207    2
   123   219   221    1
   124   219   218    1
   125    11    10    2
   126    16    10   am
   127   211   210    1
   128   214   215    1
   129   207   209   am
   130   207   206    1
   131    10     9    1
   132   130   131    1
   133   210   203   am
   134   218   215    1
   135    12     9    1
   136    12    13    1
   137    14    13    1
   138   115   113    1
   139   134   135    1
   140   134   132   am
   141   160   158    1
   142   131   132    1
   143   215   216    1
   144   206   205    1
   145     9     8    1
   146   135   136    1
   147   205   202    1
   148    13    15    1
   149   132   133    2
   150   203   204    2
   151   203   202    1
   152   217   216    2
   153   157   156    2
   154   158   159    1
   155   158   155    1
   156   187   186    1
   157     8     3   am
   158   113   110    1
   159   113   114    1
   160   111   110    1
   161   111   112    2
   162   156   155    1
   163   110   109    1
   164   136   137    2
   165   202   201    1
   166   200   199    1
   167   159   161    1
   168   188   186    1
   169   155   154    1
   170   199   198   ar
   171   199   197   ar
   172   186   183    1
   173   145   144    2
   174     7     5    1
   175     3     4    2
   176     3     2    1
   177   198   196   ar
   178   197   195   ar
   179   226   223    1
   180   146   144   am
   181   144   143    1
   182   196   194   ar
   183   152   151    1
   184     2     5    1
   185     2     1    1
   186   222   223    1
   187   195   194   ar
   188   183   182    1
   189   183   184    1
   190   223   224    1
   191     5     6    1
   192   194   193    1
   193   143   142    1
   194   192   191    2
   195   142   139    1
   196   193   190    1
   197   138   139    1
   198   184   185    2
   199   151   153    1
   200   151   148    1
   201   191   190    1
   202   224   225    2
   203   147   148    1
   204   147   140   am
   205   139   140    1
   206   148   149    1
   207   149   150    2
   208   190   189    1
   209   140   141    2
