@<TRIPOS>MOLECULE
tmp/3cmbA00.pdb
 207 192 0 0 0
SMALL
GASTEIGER

@<TRIPOS>ATOM
      1  N         11.4240   38.6500   37.5050 N.3    24  THR24      -0.1203
      2  CA        12.1320   38.2290   38.7470 C.3    24  THR24       0.1994
      3  C         12.5920   39.4460   39.5450 C.2    24  THR24       0.2618
      4  O         13.2870   40.3100   39.0340 O.2    24  THR24      -0.2717
      5  CB        13.3600   37.3530   38.4470 C.3    24  THR24       0.1784
      6  OG1       12.9620   36.1670   37.7600 O.3    24  THR24      -0.2211
      7  CG2       14.0960   36.9690   39.7760 C.3    24  THR24       0.0376
      8  N         12.1980   39.4880   40.8070 N.am   25  LEU25      -0.1965
      9  CA        12.4950   40.6050   41.6600 C.3    25  LEU25       0.1728
     10  C         13.4590   40.2350   42.7480 C.2    25  LEU25       0.2616
     11  O         13.4560   39.1170   43.2280 O.2    25  LEU25      -0.2715
     12  CB        11.2200   41.1050   42.3150 C.3    25  LEU25       0.0311
     13  CG        10.0720   41.4830   41.3510 C.3    25  LEU25       0.0022
     14  CD1        8.8610   41.9440   42.1870 C.3    25  LEU25       0.0001
     15  CD2       10.4980   42.5430   40.3680 C.3    25  LEU25       0.0001
     16  N         14.2010   41.2510   43.1600 N.am   26  VAL26      -0.1977
     17  CA        14.7940   41.3040   44.5160 C.3    26  VAL26       0.1596
     18  C         13.9740   42.3080   45.3230 C.2    26  VAL26       0.2287
     19  O         13.7670   43.4360   44.9100 O.2    26  VAL26      -0.2864
     20  CB        16.2960   41.6980   44.4280 C.3    26  VAL26       0.0276
     21  CG1       16.9530   41.8950   45.8180 C.3    26  VAL26       0.0022
     22  CG2       17.0620   40.6880   43.6160 C.3    26  VAL26       0.0022
     23  N         13.5960   43.5910   49.5630 N.3    28  GLN28      -0.1245
     24  CA        14.3210   43.5980   50.8330 C.3    28  GLN28       0.1566
     25  C         14.0540   44.9120   51.5220 C.2    28  GLN28       0.2260
     26  O         13.8250   45.9310   50.8560 O.2    28  GLN28      -0.2867
     27  CB        15.8580   43.4020   50.6050 C.3    28  GLN28       0.0367
     28  CG        16.5590   44.4980   49.7530 C.3    28  GLN28       0.0905
     29  CD        17.7600   44.0090   48.9680 C.2    28  GLN28       0.2608
     30  OE1       18.0910   42.8440   48.9970 O.2    28  GLN28      -0.2717
     31  NE2       18.4140   44.9170   48.2560 N.am   28  GLN28      -0.0878
     32  N         20.7890   52.3540   54.6430 N.3    32  ALA32      -0.1245
     33  CA        22.0900   52.8170   54.1090 C.3    32  ALA32       0.1562
     34  C         22.6890   54.0260   54.7850 C.2    32  ALA32       0.2260
     35  O         21.9960   54.9900   55.1030 O.2    32  ALA32      -0.2867
     36  CB        22.0100   53.0670   52.5780 C.3    32  ALA32       0.0290
     37  N         25.2780   56.4460   53.5260 N.3    34  SER34      -0.1217
     38  CA        25.8750   56.8530   52.2700 C.3    34  SER34       0.1889
     39  C         26.7350   58.1140   52.3780 C.2    34  SER34       0.2288
     40  O         26.2420   59.1980   52.7660 O.2    34  SER34      -0.2866
     41  CB        24.7280   57.0110   51.2420 C.3    34  SER34       0.2089
     42  OG        25.2180   57.3570   49.9570 O.3    34  SER34      -0.2183
     43  N         25.3620   49.3880   53.3050 N.3    64  ASN64      -0.1240
     44  CA        23.9570   48.9330   53.1740 C.3    64  ASN64       0.1653
     45  C         23.7730   47.6600   53.9650 C.2    64  ASN64       0.2266
     46  O         24.6100   46.7340   53.9450 O.2    64  ASN64      -0.2867
     47  CB        23.4850   48.6650   51.7290 C.3    64  ASN64       0.1155
     48  CG        23.4770   49.8910   50.8090 C.2    64  ASN64       0.2627
     49  OD1       22.4100   50.3200   50.3730 O.2    64  ASN64      -0.2716
     50  ND2       24.6410   50.4160   50.4800 N.am   64  ASN64      -0.0877
     51  N         20.6800   44.8580   54.2820 N.3    66  PHE66      -0.1241
     52  CA        19.4930   44.3400   53.5590 C.3    66  PHE66       0.1605
     53  C         18.9370   43.2480   54.4630 C.2    66  PHE66       0.2264
     54  O         19.6620   42.3560   54.9430 O.2    66  PHE66      -0.2867
     55  CB        19.8130   43.7400   52.1720 C.3    66  PHE66       0.0534
     56  CG        20.3360   44.7140   51.1630 C.ar   66  PHE66      -0.0203
     57  CD1       19.9690   46.0470   51.1390 C.ar   66  PHE66      -0.0042
     58  CD2       21.2120   44.2550   50.2040 C.ar   66  PHE66      -0.0042
     59  CE1       20.5350   46.8950   50.1820 C.ar   66  PHE66      -0.0003
     60  CE2       21.7360   45.0790   49.2760 C.ar   66  PHE66      -0.0003
     61  CZ        21.3920   46.4080   49.2620 C.ar   66  PHE66      -0.0000
     62  N         14.9710   36.4900   48.0380 N.3    71  TRP71      -0.1241
     63  CA        15.6540   35.4360   47.3290 C.3    71  TRP71       0.1605
     64  C         16.5560   34.6020   48.2530 C.2    71  TRP71       0.2264
     65  O         16.9730   33.5300   47.8840 O.2    71  TRP71      -0.2867
     66  CB        16.4260   35.9980   46.1020 C.3    71  TRP71       0.0550
     67  CG        17.6040   36.8580   46.4370 C.ar   71  TRP71       0.0003
     68  CD1       17.5720   38.1750   46.7300 C.ar   71  TRP71       0.0946
     69  CD2       18.9790   36.4470   46.5870 C.ar   71  TRP71       0.0152
     70  NE1       18.8380   38.6360   47.0090 N.ar   71  TRP71      -0.2442
     71  CE2       19.7140   37.5890   46.9110 C.ar   71  TRP71       0.0810
     72  CE3       19.6560   35.2490   46.3750 C.ar   71  TRP71       0.0012
     73  CZ2       21.0900   37.5610   47.1050 C.ar   71  TRP71       0.0191
     74  CZ3       21.0320   35.2220   46.5880 C.ar   71  TRP71       0.0001
     75  CH2       21.7230   36.3710   46.9360 C.ar   71  TRP71       0.0015
     76  N         22.1460   40.4590   54.7190 N.3    77  TYR77      -0.1241
     77  CA        23.5720   40.7150   54.6800 C.3    77  TYR77       0.1605
     78  C         23.8680   42.1790   54.6290 C.2    77  TYR77       0.2264
     79  O         22.9730   43.0060   54.4240 O.2    77  TYR77      -0.2867
     80  CB        24.2930   39.9660   53.5720 C.3    77  TYR77       0.0534
     81  CG        23.8490   40.3270   52.1520 C.ar   77  TYR77      -0.0201
     82  CD1       22.7720   39.7100   51.5410 C.ar   77  TYR77      -0.0009
     83  CD2       24.5370   41.2930   51.4310 C.ar   77  TYR77      -0.0009
     84  CE1       22.3860   40.0440   50.2670 C.ar   77  TYR77       0.0417
     85  CE2       24.1180   41.6610   50.1640 C.ar   77  TYR77       0.0417
     86  CZ        23.0510   41.0220   49.5800 C.ar   77  TYR77       0.1957
     87  OH        22.6050   41.3250   48.3210 O.3    77  TYR77      -0.2866
     88  N         26.7830   45.2080   53.1800 N.3    79  LEU79      -0.1245
     89  CA        27.7370   45.5180   52.1170 C.3    79  LEU79       0.1561
     90  C         28.2990   46.8990   52.2450 C.2    79  LEU79       0.2260
     91  O         27.6650   47.7650   52.8750 O.2    79  LEU79      -0.2867
     92  CB        27.0960   45.3010   50.7210 C.3    79  LEU79       0.0270
     93  CG        26.0030   46.2560   50.2660 C.3    79  LEU79       0.0019
     94  CD1       26.6010   47.4230   49.4820 C.3    79  LEU79       0.0001
     95  CD2       25.0030   45.5340   49.3850 C.3    79  LEU79       0.0001
     96  N         29.5710   49.5200   49.3770 N.3    81  ASN81      -0.1240
     97  CA        29.6500   49.8320   47.9490 C.3    81  ASN81       0.1653
     98  C         30.6050   51.0240   47.7060 C.2    81  ASN81       0.2266
     99  O         30.4580   52.0670   48.3440 O.2    81  ASN81      -0.2867
    100  CB        28.1950   50.1400   47.5140 C.3    81  ASN81       0.1155
    101  CG        28.0260   50.4090   46.0330 C.2    81  ASN81       0.2627
    102  OD1       28.7690   49.9110   45.1930 O.2    81  ASN81      -0.2716
    103  ND2       26.9730   51.1760   45.7090 N.am   81  ASN81      -0.0877
    104  N         32.7430   46.1520   45.6860 N.3   103  VAL103     -0.1245
    105  CA        31.6970   45.9660   46.6970 C.3   103  VAL103      0.1561
    106  C         32.1510   44.8820   47.6770 C.2   103  VAL103      0.2260
    107  O         32.3840   43.7330   47.2940 O.2   103  VAL103     -0.2867
    108  CB        30.3420   45.5900   46.0870 C.3   103  VAL103      0.0252
    109  CG1       29.2410   45.4940   47.1790 C.3   103  VAL103      0.0019
    110  CG2       30.0060   46.5930   44.9080 C.3   103  VAL103      0.0019
    111  N         25.4110   36.4800   47.6260 N.3   110  PRO110     -0.2116
    112  CA        25.3010   37.6930   46.7830 C.3   110  PRO110      0.1372
    113  C         26.6070   37.9930   46.0410 C.2   110  PRO110      0.2244
    114  O         26.5910   38.6500   44.9820 O.2   110  PRO110     -0.2868
    115  CB        24.9170   38.8010   47.7880 C.3   110  PRO110      0.0268
    116  CG        25.3590   38.2360   49.1680 C.3   110  PRO110      0.0207
    117  CD        25.2310   36.7490   49.0630 C.3   110  PRO110      0.0892
    118  N         26.7300   35.7560   42.8850 N.3   113  GLY113     -0.1210
    119  CA        25.6630   36.2260   42.0240 C.3   113  GLY113      0.1956
    120  C         26.0190   37.5000   41.2890 C.2   113  GLY113      0.2612
    121  O         25.8320   37.6460   40.0600 O.2   113  GLY113     -0.2717
    122  N         26.5300   38.4360   42.0600 N.am  114  GLY114     -0.1956
    123  CA        26.8440   39.7410   41.5300 C.3   114  GLY114      0.1869
    124  C         27.9090   39.6690   40.4720 C.2   114  GLY114      0.2309
    125  O         27.8430   40.3420   39.4570 O.2   114  GLY114     -0.2863
    126  N         26.6170   37.1170   37.4300 N.3   117  GLN117     -0.1245
    127  CA        25.4300   37.5220   36.6650 C.3   117  GLN117      0.1566
    128  C         25.4920   38.9100   36.0640 C.2   117  GLN117      0.2260
    129  O         24.8090   39.1970   35.0650 O.2   117  GLN117     -0.2867
    130  CB        24.1940   37.4250   37.5100 C.3   117  GLN117      0.0367
    131  CG        23.8720   35.9930   37.9370 C.3   117  GLN117      0.0905
    132  CD        22.7530   35.9150   38.9810 C.2   117  GLN117      0.2608
    133  OE1       22.4920   36.8850   39.7530 O.2   117  GLN117     -0.2717
    134  NE2       22.0560   34.7730   39.0020 N.am  117  GLN117     -0.0878
    135  N         29.5320   42.7450   38.7800 N.3   120  ILE120     -0.1245
    136  CA        29.7780   43.5890   39.9220 C.3   120  ILE120      0.1561
    137  C         30.9440   42.9950   40.7260 C.2   120  ILE120      0.2260
    138  O         30.8900   41.8240   41.0740 O.2   120  ILE120     -0.2867
    139  CB        28.5430   43.7340   40.8710 C.3   120  ILE120      0.0252
    140  CG1       27.2090   44.0430   40.1760 C.3   120  ILE120      0.0019
    141  CG2       28.8400   44.8150   41.8840 C.3   120  ILE120      0.0019
    142  CD1       27.2450   45.2780   39.3840 C.3   120  ILE120      0.0001
    143  N         32.3560   42.0870   43.4940 N.3   122  LYS122     -0.1245
    144  CA        32.0280   41.7800   44.8880 C.3   122  LYS122      0.1561
    145  C         33.1230   40.8930   45.4660 C.2   122  LYS122      0.2260
    146  O         33.6220   39.9760   44.8160 O.2   122  LYS122     -0.2867
    147  CB        30.6830   41.0740   44.9630 C.3   122  LYS122      0.0271
    148  CG        29.5100   41.9940   44.5790 C.3   122  LYS122      0.0035
    149  CD        28.2730   41.2460   44.5930 C.3   122  LYS122      0.0206
    150  CE        27.1440   42.2150   44.4760 C.3   122  LYS122      0.1093
    151  NZ        25.9360   41.5700   44.9190 N.3   122  LYS122     -0.1314
    152  N         17.9680   58.3520   44.9370 N.3   170  PHE170     -0.1241
    153  CA        18.1390   56.9290   45.3510 C.3   170  PHE170      0.1605
    154  C         17.2910   55.9300   44.5550 C.2   170  PHE170      0.2264
    155  O         17.6760   54.7770   44.3860 O.2   170  PHE170     -0.2867
    156  CB        17.8070   56.7370   46.8360 C.3   170  PHE170      0.0534
    157  CG        18.9540   57.0160   47.7730 C.ar  170  PHE170     -0.0203
    158  CD1       19.3270   58.3060   48.0690 C.ar  170  PHE170     -0.0042
    159  CD2       19.6250   55.9820   48.3860 C.ar  170  PHE170     -0.0042
    160  CE1       20.3680   58.5640   48.9320 C.ar  170  PHE170     -0.0003
    161  CE2       20.6580   56.2410   49.2490 C.ar  170  PHE170     -0.0003
    162  CZ        21.0270   57.5380   49.5190 C.ar  170  PHE170     -0.0000
    163  N         23.8020   51.2830   38.0070 N.3   174  THR174     -0.1218
    164  CA        25.0070   50.6340   38.5520 C.3   174  THR174      0.1862
    165  C         25.7250   50.0010   37.4140 C.2   174  THR174      0.2287
    166  O         25.1260   49.2380   36.6720 O.2   174  THR174     -0.2866
    167  CB        24.6030   49.5600   39.5840 C.3   174  THR174      0.1770
    168  OG1       23.9020   50.1930   40.6530 O.3   174  THR174     -0.2211
    169  CG2       25.8140   48.8620   40.1370 C.3   174  THR174      0.0375
    170  N         23.0720   47.5550   35.5590 N.3   196  TYR196     -0.1241
    171  CA        22.0440   46.9860   36.4040 C.3   196  TYR196      0.1605
    172  C         21.2190   48.1510   36.9640 C.2   196  TYR196      0.2264
    173  O         21.6280   48.7970   37.9140 O.2   196  TYR196     -0.2867
    174  CB        22.6910   46.1460   37.5140 C.3   196  TYR196      0.0534
    175  CG        21.7260   45.2750   38.2810 C.ar  196  TYR196     -0.0201
    176  CD1       20.3910   45.6100   38.4050 C.ar  196  TYR196     -0.0009
    177  CD2       22.1680   44.1430   38.9140 C.ar  196  TYR196     -0.0009
    178  CE1       19.5070   44.7840   39.1360 C.ar  196  TYR196      0.0417
    179  CE2       21.3260   43.3260   39.6150 C.ar  196  TYR196      0.0417
    180  CZ        19.9840   43.6530   39.7280 C.ar  196  TYR196      0.1957
    181  OH        19.1120   42.8770   40.4510 O.3   196  TYR196     -0.2866
    182  N         18.9590   49.8660   39.2520 N.3   198  GLN198     -0.1231
    183  CA        18.3950   49.5790   40.6050 C.3   198  GLN198      0.1698
    184  C         18.1780   50.7800   41.4510 C.2   198  GLN198      0.2592
    185  O         17.7670   51.8280   40.9920 O.2   198  GLN198     -0.2718
    186  CB        19.2960   48.6310   41.3670 C.3   198  GLN198      0.0381
    187  CG        20.6670   49.1540   41.5500 C.3   198  GLN198      0.0905
    188  CD        21.3100   48.7740   42.8950 C.2   198  GLN198      0.2608
    189  OE1       20.6240   48.4660   43.8640 O.2   198  GLN198     -0.2717
    190  NE2       22.6260   48.9170   42.9620 N.am  198  GLN198     -0.0878
    191  N         18.5200   50.6160   42.7230 N.am  199  GLY199     -0.1957
    192  CA        18.3090   51.6570   43.7440 C.3   199  GLY199      0.1869
    193  C         17.5240   51.2110   44.9660 C.2   199  GLY199      0.2309
    194  O         17.6380   50.0660   45.4100 O.2   199  GLY199     -0.2863
    195  N         13.7610   45.4480   43.0320 N.3   250  LEU250     -0.1245
    196  CA        14.7290   45.4440   41.9220 C.3   250  LEU250      0.1561
    197  C         14.3250   44.4290   40.8770 C.2   250  LEU250      0.2260
    198  O         13.9520   43.3200   41.2020 O.2   250  LEU250     -0.2867
    199  CB        16.1470   45.1240   42.3920 C.3   250  LEU250      0.0270
    200  CG        16.6240   45.9130   43.6080 C.3   250  LEU250      0.0019
    201  CD1       18.0350   45.5120   43.8710 C.3   250  LEU250      0.0001
    202  CD2       16.5270   47.3790   43.4270 C.3   250  LEU250      0.0001
    203  N         15.5670   42.1060   38.4970 N.3   252  ALA252     -0.1245
    204  CA        16.8740   41.4300   38.3430 C.3   252  ALA252      0.1562
    205  C         17.1870   41.1600   36.8850 C.2   252  ALA252      0.2260
    206  O         18.3370   41.1580   36.4420 O.2   252  ALA252     -0.2867
    207  CB        16.8910   40.1440   39.1420 C.3   252  ALA252      0.0290
@<TRIPOS>BOND
     1   129   128    2
     2   170   171    1
     3   128   127    1
     4   171   172    1
     5   171   174    1
     6   206   205    2
     7   127   126    1
     8   127   130    1
     9   166   165    2
    10   205   204    1
    11   172   173    2
    12   165   164    1
    13     1     2    1
    14   130   131    1
    15   174   175    1
    16     6     5    1
    17   131   132    1
    18   163   164    1
    19   175   176   ar
    20   175   177   ar
    21   204   203    1
    22   204   207    1
    23   176   178   ar
    24     5     2    1
    25     5     7    1
    26   164   167    1
    27     2     3    1
    28   135   136    1
    29   177   179   ar
    30   132   134   am
    31   132   133    2
    32     4     3    2
    33   178   180   ar
    34   182   183    1
    35   142   140    1
    36   125   124    2
    37     3     8   am
    38   167   169    1
    39   167   168    1
    40   179   180   ar
    41   180   181    1
    42   136   137    1
    43   136   139    1
    44   121   120    2
    45   140   139    1
    46    15    13    1
    47   124   123    1
    48   183   186    1
    49   183   184    1
    50   137   138    2
    51     8     9    1
    52   139   141    1
    53   197   198    2
    54   197   196    1
    55   185   184    2
    56   120   119    1
    57   120   122   am
    58    13    14    1
    59    13    12    1
    60   186   187    1
    61   184   191   am
    62   123   122    1
    63   187   188    1
    64     9    12    1
    65     9    10    1
    66   196   199    1
    67   196   195    1
    68   119   118    1
    69   199   200    1
    70   191   192    1
    71    10    16   am
    72    10    11    2
    73   188   190   am
    74   188   189    2
    75    16    17    1
    76   202   200    1
    77   143   144    1
    78   200   201    1
    79    22    20    1
    80   192   193    1
    81   155   154    2
    82    20    17    1
    83    20    21    1
    84   150   149    1
    85   150   151    1
    86    17    18    1
    87   154   153    1
    88   148   149    1
    89   148   147    1
    90   146   145    2
    91   144   147    1
    92   144   145    1
    93   110   108    1
    94    19    18    2
    95   152   153    1
    96   193   194    2
    97   114   113    2
    98   102   101    2
    99   153   156    1
   100   104   105    1
   101   103   101   am
   102   101   100    1
   103   113   112    1
   104   108   105    1
   105   108   109    1
   106    66    67    1
   107    66    63    1
   108    72    69   ar
   109    72    74   ar
   110    67    69   ar
   111    67    68   ar
   112    69    71   ar
   113    74    75   ar
   114   105   106    1
   115    68    70   ar
   116   112   111    1
   117   112   115    1
   118   156   157    1
   119    71    70   ar
   120    71    73   ar
   121    75    73   ar
   122   107   106    2
   123    63    62    1
   124    63    64    1
   125   100    97    1
   126   111   117    1
   127    98    97    1
   128    98    99    2
   129   157   158   ar
   130   157   159   ar
   131   115   116    1
   132    65    64    2
   133    97    96    1
   134   158   160   ar
   135    31    29   am
   136    87    86    1
   137   159   161   ar
   138   160   162   ar
   139    29    30    2
   140    29    28    1
   141   117   116    1
   142   161   162   ar
   143    61    60   ar
   144    61    59   ar
   145    60    58   ar
   146    95    93    1
   147    94    93    1
   148    23    24    1
   149    86    85   ar
   150    86    84   ar
   151    28    27    1
   152    42    41    1
   153    85    83   ar
   154    59    57   ar
   155    58    56   ar
   156    93    92    1
   157    84    82   ar
   158    49    48    2
   159    50    48   am
   160    27    24    1
   161    92    89    1
   162    48    47    1
   163    24    25    1
   164    26    25    2
   165    57    56   ar
   166    56    55    1
   167    41    38    1
   168    83    81   ar
   169    82    81   ar
   170    47    44    1
   171    89    90    1
   172    89    88    1
   173    81    80    1
   174    55    52    1
   175    90    91    2
   176    38    39    1
   177    38    37    1
   178    39    40    2
   179    36    33    1
   180    44    43    1
   181    44    45    1
   182    52    51    1
   183    52    53    1
   184    80    77    1
   185    46    45    2
   186    33    32    1
   187    33    34    1
   188    79    78    2
   189    53    54    2
   190    78    77    1
   191    77    76    1
   192    34    35    2
