@<TRIPOS>MOLECULE
tmp/3cmcC00.pdb
 120 112 0 0 0
SMALL
GASTEIGER

@<TRIPOS>ATOM
      1  N         59.3350    7.6760   11.9510 N.3   121  PRO121     -0.2116
      2  CA        60.5310    7.1690   12.6240 C.3   121  PRO121      0.1372
      3  C         61.5330    6.9390   11.5210 C.2   121  PRO121      0.2244
      4  O         61.1860    6.5230   10.4160 O.2   121  PRO121     -0.2868
      5  CB        60.0650    5.8440   13.2080 C.3   121  PRO121      0.0268
      6  CG        58.5940    6.0810   13.4960 C.3   121  PRO121      0.0207
      7  CD        58.1240    6.8830   12.2770 C.3   121  PRO121      0.0892
      8  N         56.7600    9.2320   15.1650 N.3   150  SER150     -0.1202
      9  CA        55.4940    8.7630   14.6220 C.3   150  SER150      0.2020
     10  C         54.3510    9.5110   15.2960 C.2   150  SER150      0.2619
     11  O         54.5170   10.1120   16.3440 O.2   150  SER150     -0.2717
     12  CB        55.3350    7.2400   14.8670 C.3   150  SER150      0.2103
     13  OG        55.1290    6.9450   16.2540 O.3   150  SER150     -0.2182
     14  N         53.1400    9.3590   14.7510 N.am  151  CYS151     -0.1955
     15  CA        51.9820    9.9670   15.3660 C.3   151  CYS151      0.1843
     16  C         51.7640    9.3440   16.7680 C.2   151  CYS151      0.2626
     17  O         51.4800   10.0430   17.7210 O.2   151  CYS151     -0.2714
     18  CB        50.7340    9.7350   14.4520 C.3   151  CYS151      0.0997
     19  SG        50.4920    8.0190   13.9740 S.3   151  CYS151     -0.0797
     20  N         51.9420    8.0210   16.9110 N.am  152  THR152     -0.1950
     21  CA        51.7330    7.3860   18.2180 C.3   152  THR152      0.1897
     22  C         52.7060    7.8950   19.2580 C.2   152  THR152      0.2313
     23  O         52.3470    8.1100   20.4140 O.2   152  THR152     -0.2863
     24  CB        51.7900    5.8510   18.1060 C.3   152  THR152      0.1794
     25  OG1       50.8450    5.4540   17.1080 O.3   152  THR152     -0.2208
     26  CG2       51.3930    5.2090   19.4800 C.3   152  THR152      0.0378
     27  N         47.9580    0.8900   20.8930 N.3   176  THR176     -0.1218
     28  CA        47.2240    1.9580   20.2390 C.3   176  THR176      0.1862
     29  C         46.1800    1.3010   19.3570 C.2   176  THR176      0.2287
     30  O         46.5160    0.4640   18.5140 O.2   176  THR176     -0.2866
     31  CB        48.0900    2.9570   19.3820 C.3   176  THR176      0.1770
     32  OG1       47.1910    3.7740   18.5940 O.3   176  THR176     -0.2211
     33  CG2       49.1050    2.2620   18.4420 C.3   176  THR176      0.0375
     34  N         44.2150    1.9380   16.4300 N.3   178  HIS178     -0.1241
     35  CA        44.6320    2.9260   15.4500 C.3   178  HIS178      0.1621
     36  C         43.8810    2.8050   14.1350 C.2   178  HIS178      0.2264
     37  O         43.6730    1.7350   13.6590 O.2   178  HIS178     -0.2867
     38  CB        46.1360    2.6520   15.2430 C.3   178  HIS178      0.0745
     39  CG        46.8770    3.6990   14.4760 C.ar  178  HIS178      0.0817
     40  ND1       46.6090    3.9900   13.1530 N.ar  178  HIS178     -0.2268
     41  CD2       47.9580    4.4430   14.8120 C.ar  178  HIS178      0.1154
     42  CE1       47.4770    4.8810   12.7120 C.ar  178  HIS178      0.1986
     43  NE2       48.2910    5.1930   13.7050 N.ar  178  HIS178     -0.2212
     44  N         45.7260    2.9720    7.6420 N.3   181  THR181     -0.1218
     45  CA        46.4970    3.9250    6.8280 C.3   181  THR181      0.1862
     46  C         46.7660    3.3440    5.4560 C.2   181  THR181      0.2287
     47  O         46.5540    2.1580    5.2120 O.2   181  THR181     -0.2866
     48  CB        47.8370    4.2860    7.4930 C.3   181  THR181      0.1770
     49  OG1       48.7090    3.1340    7.4740 O.3   181  THR181     -0.2211
     50  CG2       47.6170    4.8030    8.9470 C.3   181  THR181      0.0375
     51  N         49.2340   -6.7890    8.1900 N.3   196  ARG196     -0.1245
     52  CA        48.9020   -5.6110    7.3820 C.3   196  ARG196      0.1563
     53  C         48.5670   -5.9870    5.9310 C.2   196  ARG196      0.2260
     54  O         48.0380   -5.1790    5.1880 O.2   196  ARG196     -0.2867
     55  CB        50.0520   -4.5920    7.4110 C.3   196  ARG196      0.0307
     56  CG        50.1730   -3.8520    8.7090 C.3   196  ARG196      0.0489
     57  CD        51.2330   -2.7550    8.6170 C.3   196  ARG196      0.2205
     58  NE        51.4310   -2.1700    9.9310 N.pl3 196  ARG196     -0.0865
     59  CZ        51.6850   -0.8860   10.1640 C.cat 196  ARG196      0.5346
     60  NH1       51.7870   -0.0370    9.1450 N.pl3 196  ARG196      0.1354
     61  NH2       51.8520   -0.4640   11.4170 N.pl3 196  ARG196      0.1354
     62  N         52.9420   -4.7450   15.0150 N.3   208  THR208     -0.1203
     63  CA        53.9870   -4.2920   15.9100 C.3   208  THR208      0.1994
     64  C         54.1560   -2.7970   15.8500 C.2   208  THR208      0.2619
     65  O         53.8650   -2.1700   14.8350 O.2   208  THR208     -0.2717
     66  CB        55.3190   -5.0260   15.6700 C.3   208  THR208      0.1784
     67  OG1       55.8330   -4.6770   14.3870 O.3   208  THR208     -0.2211
     68  CG2       55.1150   -6.5560   15.7450 C.3   208  THR208      0.0376
     69  N         54.6230   -2.2160   16.9430 N.am  209  THR209     -0.1938
     70  CA        54.8980   -0.7880   16.9340 C.3   209  THR209      0.2028
     71  C         56.1910   -0.5000   17.6750 C.2   209  THR209      0.2643
     72  O         56.4110   -1.0440   18.7550 O.2   209  THR209     -0.2714
     73  CB        53.7390    0.0380   17.5180 C.3   209  THR209      0.1808
     74  OG1       54.0580    1.4320   17.3870 O.3   209  THR209     -0.2208
     75  CG2       53.5450   -0.2690   19.0140 C.3   209  THR209      0.0379
     76  N         57.0170    0.3850   17.1210 N.am  210  GLY210     -0.1939
     77  CA        58.2400    0.8040   17.7760 C.3   210  GLY210      0.2014
     78  C         57.9810    2.0640   18.5820 C.2   210  GLY210      0.2638
     79  O         58.8860    2.6280   19.1980 O.2   210  GLY210     -0.2714
     80  N         56.7160    2.4800   18.6160 N.am  211  ALA211     -0.1977
     81  CA        56.3260    3.7250   19.2720 C.3   211  ALA211      0.1597
     82  C         56.6940    3.8630   20.7450 C.2   211  ALA211      0.2287
     83  O         57.1310    4.9320   21.1850 O.2   211  ALA211     -0.2864
     84  CB        54.8430    4.0200   19.0560 C.3   211  ALA211      0.0319
     85  N         50.1310   -2.1970   18.2560 N.3   230  ALA230     -0.1245
     86  CA        49.0180   -1.4760   17.6860 C.3   230  ALA230      0.1562
     87  C         47.9420   -2.4890   17.2800 C.2   230  ALA230      0.2260
     88  O         48.2050   -3.6670   17.0620 O.2   230  ALA230     -0.2867
     89  CB        49.4690   -0.6730   16.4200 C.3   230  ALA230      0.0290
     90  N         45.1850   -2.1240   14.3460 N.3   232  ARG232     -0.1245
     91  CA        44.5960   -1.3130   13.2740 C.3   232  ARG232      0.1563
     92  C         43.1400   -1.7470   13.1210 C.2   232  ARG232      0.2260
     93  O         42.8470   -2.9280   13.1190 O.2   232  ARG232     -0.2867
     94  CB        45.3650   -1.5720   11.9580 C.3   232  ARG232      0.0307
     95  CG        46.8160   -0.9910   11.9790 C.3   232  ARG232      0.0489
     96  CD        46.7990    0.5390   12.0850 C.3   232  ARG232      0.2205
     97  NE        48.1400    1.1390   12.0720 N.pl3 232  ARG232     -0.0865
     98  CZ        48.7280    1.6430   10.9910 C.cat 232  ARG232      0.5346
     99  NH1       49.8970    2.2650   11.1000 N.pl3 232  ARG232      0.1354
    100  NH2       48.1690    1.4960    9.8080 N.pl3 232  ARG232      0.1354
    101  N         45.6570   11.0660   14.0760 N.3   314  ASN314     -0.1240
    102  CA        46.9520   10.6490   13.5430 C.3   314  ASN314      0.1653
    103  C         47.4200   11.4300   12.3250 C.2   314  ASN314      0.2266
    104  O         48.6270   11.5880   12.1370 O.2   314  ASN314     -0.2867
    105  CB        47.0200    9.1380   13.3250 C.3   314  ASN314      0.1155
    106  CG        45.7990    8.6080   12.5980 C.2   314  ASN314      0.2627
    107  OD1       44.7410    8.3730   13.2190 O.2   314  ASN314     -0.2716
    108  ND2       45.9250    8.4480   11.3000 N.am  314  ASN314     -0.0877
    109  N         49.7890   15.1790   14.1060 N.3   318  TYR318     -0.1241
    110  CA        51.1670   14.9670   13.6680 C.3   318  TYR318      0.1605
    111  C         51.5800   15.9850   12.5930 C.2   318  TYR318      0.2264
    112  O         52.7010   16.4960   12.6020 O.2   318  TYR318     -0.2867
    113  CB        51.3140   13.5490   13.1110 C.3   318  TYR318      0.0534
    114  CG        52.7250   13.2130   12.7370 C.ar  318  TYR318     -0.0201
    115  CD1       53.6080   12.7460   13.6980 C.ar  318  TYR318     -0.0009
    116  CD2       53.1930   13.4330   11.4460 C.ar  318  TYR318     -0.0009
    117  CE1       54.9060   12.4330   13.3700 C.ar  318  TYR318      0.0417
    118  CE2       54.4810   13.1590   11.1100 C.ar  318  TYR318      0.0417
    119  CZ        55.3440   12.6900   12.0700 C.ar  318  TYR318      0.1957
    120  OH        56.6310   12.4230   11.7370 O.3   318  TYR318     -0.2866
@<TRIPOS>BOND
     1    54    53    2
     2    47    46    2
     3    46    45    1
     4    53    52    1
     5    45    48    1
     6    45    44    1
     7    52    55    1
     8    52    51    1
     9    55    56    1
    10    49    48    1
    11    48    50    1
    12    57    56    1
    13    57    58    1
    14    60    59    1
    15   100    98    1
    16    58    59    2
    17    59    61    1
    18     4     3    2
    19    98    99    1
    20    98    97    2
    21   118   116   ar
    22   118   119   ar
    23   108   106   am
    24   116   114   ar
    25     3     2    1
    26   120   119    1
    27     1     7    1
    28     1     2    1
    29    94    95    1
    30    94    91    1
    31    95    96    1
    32   119   117   ar
    33    97    96    1
    34   104   103    2
    35     7     6    1
    36   103   102    1
    37   111   112    2
    38   111   110    1
    39   106   107    2
    40   106   105    1
    41     2     5    1
    42    42    40   ar
    43    42    43   ar
    44   114   113    1
    45   114   115   ar
    46   113   110    1
    47    93    92    2
    48    92    91    1
    49    40    39   ar
    50     5     6    1
    51    91    90    1
    52   105   102    1
    53   117   115   ar
    54   102   101    1
    55    37    36    2
    56   110   109    1
    57    43    41   ar
    58    19    18    1
    59    36    35    1
    60    67    66    1
    61    18    15    1
    62    39    41   ar
    63    39    38    1
    64     9    12    1
    65     9     8    1
    66     9    10    1
    67    14    10   am
    68    14    15    1
    69    65    64    2
    70    12    13    1
    71    62    63    1
    72    38    35    1
    73    10    11    2
    74    15    16    1
    75    35    34    1
    76    66    68    1
    77    66    63    1
    78    64    63    1
    79    64    69   am
    80    89    86    1
    81    16    20   am
    82    16    17    2
    83    20    21    1
    84    70    69    1
    85    70    73    1
    86    70    71    1
    87    88    87    2
    88    25    24    1
    89    76    71   am
    90    76    77    1
    91    87    86    1
    92    74    73    1
    93    73    75    1
    94    71    72    2
    95    86    85    1
    96    77    78    1
    97    24    21    1
    98    24    26    1
    99    21    22    1
   100    33    31    1
   101    30    29    2
   102    78    80   am
   103    78    79    2
   104    32    31    1
   105    80    81    1
   106    84    81    1
   107    22    23    2
   108    81    82    1
   109    29    28    1
   110    31    28    1
   111    28    27    1
   112    82    83    2
