@<TRIPOS>MOLECULE
tmp/3cmdB00.pdb
 72 68 0 0 0
SMALL
GASTEIGER

@<TRIPOS>ATOM
      1  N        -30.6770   68.3680   77.5670 N.3    66  GLY66      -0.1210
      2  CA       -30.4840   69.0030   76.2760 C.3    66  GLY66       0.1956
      3  C        -31.0710   70.4040   76.1980 C.2    66  GLY66       0.2612
      4  O        -32.1140   70.6810   76.7950 O.2    66  GLY66      -0.2717
      5  N        -30.3910   71.2910   75.4710 N.am   67  GLY67      -0.1942
      6  CA       -30.8620   72.6550   75.2920 C.3    67  GLY67       0.2014
      7  C        -30.3140   73.2220   73.9940 C.2    67  GLY67       0.2639
      8  O        -29.2700   72.7730   73.5270 O.2    67  GLY67      -0.2714
      9  N        -31.0040   74.1870   73.3930 N.am   68  VAL68      -0.1963
     10  CA       -30.5230   74.7890   72.1510 C.3    68  VAL68       0.1727
     11  C        -30.2000   76.2620   72.3370 C.2    68  VAL68       0.2616
     12  O        -29.5520   76.8840   71.4900 O.2    68  VAL68      -0.2715
     13  CB       -31.5500   74.6670   71.0070 C.3    68  VAL68       0.0290
     14  CG1      -31.5570   73.2560   70.4660 C.3    68  VAL68       0.0023
     15  CG2      -32.9190   75.0570   71.5050 C.3    68  VAL68       0.0023
     16  N        -30.6680   76.8180   73.4460 N.am   69  GLY69      -0.1955
     17  CA       -30.4170   78.2120   73.7470 C.3    69  GLY69       0.1869
     18  C        -30.0920   78.3420   75.2190 C.2    69  GLY69       0.2309
     19  O        -30.5040   77.5070   76.0200 O.2    69  GLY69      -0.2863
     20  N        -29.2480   82.8140   83.2850 N.3    74  GLN74      -0.1245
     21  CA       -29.4890   81.4740   83.8060 C.3    74  GLN74       0.1566
     22  C        -28.2850   80.9250   84.5640 C.2    74  GLN74       0.2260
     23  O        -28.4140   79.9840   85.3580 O.2    74  GLN74      -0.2867
     24  CB       -29.8630   80.5430   82.6650 C.3    74  GLN74       0.0367
     25  CG       -31.1800   80.9250   82.0130 C.3    74  GLN74       0.0905
     26  CD       -31.4890   80.0890   80.7970 C.2    74  GLN74       0.2608
     27  OE1      -30.9340   80.3050   79.7190 O.2    74  GLN74      -0.2717
     28  NE2      -32.3640   79.1140   80.9670 N.am   74  GLN74      -0.0878
     29  N        -39.1240   74.8330   75.8600 N.3   114  GLY114     -0.1210
     30  CA       -38.3850   74.2780   76.9830 C.3   114  GLY114      0.1956
     31  C        -37.5850   75.3360   77.7300 C.2   114  GLY114      0.2612
     32  O        -37.4010   76.4460   77.2270 O.2   114  GLY114     -0.2717
     33  N        -37.1100   75.0060   78.9290 N.am  115  CYS115     -0.1956
     34  CA       -36.3190   75.9510   79.7090 C.3   115  CYS115      0.1843
     35  C        -35.5840   75.2370   80.8420 C.2   115  CYS115      0.2625
     36  O        -36.1930   74.7920   81.8170 O.2   115  CYS115     -0.2714
     37  CB       -37.2160   77.0620   80.2670 C.3   115  CYS115      0.0997
     38  SG       -36.3300   78.4380   81.0480 S.3   115  CYS115     -0.0797
     39  N        -34.2660   75.1250   80.6990 N.am  116  LEU116     -0.1977
     40  CA       -33.4280   74.4600   81.6880 C.3   116  LEU116      0.1596
     41  C        -33.6450   74.9750   83.1040 C.2   116  LEU116      0.2287
     42  O        -33.4210   74.2470   84.0700 O.2   116  LEU116     -0.2864
     43  CB       -31.9520   74.6040   81.3060 C.3   116  LEU116      0.0297
     44  CG       -31.2930   73.6390   80.3050 C.3   116  LEU116      0.0022
     45  CD1      -32.3300   72.7630   79.6300 C.3   116  LEU116      0.0001
     46  CD2      -30.5080   74.4440   79.2710 C.3   116  LEU116      0.0001
     47  N        -36.3570   80.3600   69.2770 N.3   155  VAL155     -0.1245
     48  CA       -35.3150   80.1510   70.2750 C.3   155  VAL155      0.1561
     49  C        -34.6540   81.4660   70.6680 C.2   155  VAL155      0.2260
     50  O        -34.3950   81.7120   71.8460 O.2   155  VAL155     -0.2867
     51  CB       -34.2230   79.1780   69.7670 C.3   155  VAL155      0.0252
     52  CG1      -33.1010   79.0710   70.7940 C.3   155  VAL155      0.0019
     53  CG2      -34.8350   77.8000   69.4990 C.3   155  VAL155      0.0019
     54  N        -36.8540   83.5800   72.7880 N.3   158  HIS158     -0.1226
     55  CA       -36.8860   82.9510   74.1000 C.3   158  HIS158      0.1752
     56  C        -35.6960   83.4370   74.9450 C.2   158  HIS158      0.2595
     57  O        -35.8570   83.8620   76.0960 O.2   158  HIS158     -0.2718
     58  CB       -36.8240   81.4340   73.9230 C.3   158  HIS158      0.0759
     59  CG       -36.9330   80.6670   75.2010 C.ar  158  HIS158      0.0818
     60  ND1      -38.0710   79.9740   75.5590 N.ar  158  HIS158     -0.2268
     61  CD2      -36.0430   80.4730   76.2020 C.ar  158  HIS158      0.1154
     62  CE1      -37.8760   79.3850   76.7240 C.ar  158  HIS158      0.1986
     63  NE2      -36.6540   79.6710   77.1360 N.ar  158  HIS158     -0.2212
     64  N        -34.5040   83.3840   74.3550 N.am  159  GLU159     -0.1979
     65  CA       -33.2880   83.8030   75.0390 C.3   159  GLU159      0.1602
     66  C        -33.2310   85.2960   75.3080 C.2   159  GLU159      0.2287
     67  O        -32.7510   85.7200   76.3550 O.2   159  GLU159     -0.2864
     68  CB       -32.0610   83.3930   74.2330 C.3   159  GLU159      0.0415
     69  CG       -31.8820   81.8870   74.1100 C.3   159  GLU159      0.1163
     70  CD       -32.1960   81.1600   75.4010 C.2   159  GLU159      0.3649
     71  OE1      -31.8430   81.6740   76.4870 O.co2 159  GLU159     -0.2457
     72  OE2      -32.7930   80.0640   75.3240 O.co2 159  GLU159     -0.2457
@<TRIPOS>BOND
     1    47    48    1
     2    53    51    1
     3    51    48    1
     4    51    52    1
     5    48    49    1
     6    14    13    1
     7    49    50    2
     8    13    15    1
     9    13    10    1
    10    12    11    2
    11    10    11    1
    12    10     9    1
    13    11    16   am
    14    54    55    1
    15     9     7   am
    16    16    17    1
    17     8     7    2
    18    17    18    1
    19    58    55    1
    20    58    59    1
    21     7     6    1
    22    55    56    1
    23    69    68    1
    24    69    70    1
    25    68    65    1
    26    64    56   am
    27    64    65    1
    28    56    57    2
    29    65    66    1
    30    59    60   ar
    31    59    61   ar
    32    18    19    2
    33     6     5    1
    34    66    67    2
    35    72    70   ar
    36    70    71   ar
    37     5     3   am
    38    60    62   ar
    39    29    30    1
    40     3     2    1
    41     3     4    2
    42    61    63   ar
    43     2     1    1
    44    62    63   ar
    45    30    31    1
    46    32    31    2
    47    31    33   am
    48    33    34    1
    49    46    44    1
    50    45    44    1
    51    34    37    1
    52    34    35    1
    53    27    26    2
    54    37    38    1
    55    44    43    1
    56    39    35   am
    57    39    40    1
    58    26    28   am
    59    26    25    1
    60    35    36    2
    61    43    40    1
    62    40    41    1
    63    25    24    1
    64    24    21    1
    65    41    42    2
    66    20    21    1
    67    21    22    1
    68    22    23    2
