@<TRIPOS>MOLECULE
tmp/3cmfB01.pdb
 176 175 0 0 0
SMALL
GASTEIGER

@<TRIPOS>ATOM
      1  N          6.6770   24.2120  -24.5210 N.3    25  TYR25      -0.1241
      2  CA         7.1800   23.2610  -25.4990 C.3    25  TYR25       0.1605
      3  C          8.6230   23.6390  -25.8210 C.2    25  TYR25       0.2264
      4  O          8.9410   24.8170  -25.9850 O.2    25  TYR25      -0.2867
      5  CB         6.3930   23.2810  -26.8070 C.3    25  TYR25       0.0534
      6  CG         7.0320   22.3420  -27.8060 C.ar   25  TYR25      -0.0201
      7  CD1        6.9370   20.9600  -27.6360 C.ar   25  TYR25      -0.0009
      8  CD2        7.8280   22.8250  -28.8460 C.ar   25  TYR25      -0.0009
      9  CE1        7.6230   20.0850  -28.4650 C.ar   25  TYR25       0.0417
     10  CE2        8.5230   21.9550  -29.6880 C.ar   25  TYR25       0.0417
     11  CZ         8.4150   20.5850  -29.4870 C.ar   25  TYR25       0.1957
     12  OH         9.1010   19.7010  -30.2910 O.3    25  TYR25      -0.2866
     13  N          2.8510   15.2750  -23.9470 N.3    56  ILE56      -0.1231
     14  CA         3.7030   15.0010  -25.0980 C.3    56  ILE56       0.1692
     15  C          4.9020   15.9380  -25.2430 C.2    56  ILE56       0.2592
     16  O          5.7820   15.6950  -26.0720 O.2    56  ILE56      -0.2718
     17  CB         2.8890   15.0100  -26.4120 C.3    56  ILE56       0.0266
     18  CG1        2.2260   16.3720  -26.6230 C.3    56  ILE56       0.0019
     19  CG2        1.8350   13.9080  -26.3680 C.3    56  ILE56       0.0020
     20  CD1        1.7090   16.5840  -28.0280 C.3    56  ILE56       0.0001
     21  N          4.9460   17.0000  -24.4420 N.am   57  TYR57      -0.1976
     22  CA         6.0710   17.9270  -24.5010 C.3    57  TYR57       0.1639
     23  C          7.2680   17.2570  -23.8300 C.2    57  TYR57       0.2290
     24  O          8.3980   17.7360  -23.9260 O.2    57  TYR57      -0.2864
     25  CB         5.7440   19.2560  -23.7880 C.3    57  TYR57       0.0560
     26  CG         4.7120   20.1230  -24.4950 C.ar   57  TYR57      -0.0198
     27  CD1        4.1170   19.7030  -25.6830 C.ar   57  TYR57      -0.0009
     28  CD2        4.3040   21.3440  -23.9510 C.ar   57  TYR57      -0.0009
     29  CE1        3.1380   20.4690  -26.3120 C.ar   57  TYR57       0.0417
     30  CE2        3.3210   22.1250  -24.5730 C.ar   57  TYR57       0.0417
     31  CZ         2.7420   21.6790  -25.7530 C.ar   57  TYR57       0.1957
     32  OH         1.7600   22.4400  -26.3620 O.3    57  TYR57      -0.2866
     33  N         -3.0580   18.9860  -21.9570 N.3    86  LYS86      -0.1245
     34  CA        -3.6730   18.6220  -23.2290 C.3    86  LYS86       0.1561
     35  C         -3.7880   17.1190  -23.4890 C.2    86  LYS86       0.2260
     36  O         -2.8730   16.3560  -23.1840 O.2    86  LYS86      -0.2867
     37  CB        -2.8970   19.2850  -24.3740 C.3    86  LYS86       0.0271
     38  CG        -2.6030   20.7630  -24.1430 C.3    86  LYS86       0.0035
     39  CD        -2.1640   21.4650  -25.4230 C.3    86  LYS86       0.0206
     40  CE        -1.6350   22.8730  -25.1530 C.3    86  LYS86       0.1093
     41  NZ        -0.3630   22.8670  -24.3700 N.3    86  LYS86      -0.1314
     42  N         -3.7050   14.3690  -26.0900 N.3    88  TRP88      -0.1241
     43  CA        -3.2130   14.1200  -27.4480 C.3    88  TRP88       0.1605
     44  C         -4.0970   13.2140  -28.3170 C.2    88  TRP88       0.2264
     45  O         -4.9040   12.4240  -27.8120 O.2    88  TRP88      -0.2867
     46  CB        -1.7910   13.5530  -27.4000 C.3    88  TRP88       0.0550
     47  CG        -1.1460   13.4030  -28.7660 C.ar   88  TRP88       0.0003
     48  CD1       -0.5760   12.2710  -29.2860 C.ar   88  TRP88       0.0946
     49  CD2       -1.0030   14.4180  -29.7730 C.ar   88  TRP88       0.0152
     50  NE1       -0.0980   12.5180  -30.5510 N.ar   88  TRP88      -0.2442
     51  CE2       -0.3510   13.8220  -30.8790 C.ar   88  TRP88       0.0810
     52  CE3       -1.3790   15.7640  -29.8560 C.ar   88  TRP88       0.0012
     53  CZ2       -0.0450   14.5330  -32.0430 C.ar   88  TRP88       0.0191
     54  CZ3       -1.0760   16.4710  -31.0160 C.ar   88  TRP88       0.0001
     55  CH2       -0.4240   15.8510  -32.0960 C.ar   88  TRP88       0.0015
     56  N         -6.0990   18.3920  -27.6430 N.3   119  GLU119     -0.1231
     57  CA        -4.9540   18.9790  -28.3220 C.3   119  GLU119      0.1699
     58  C         -5.1280   19.2370  -29.8180 C.2   119  GLU119      0.2592
     59  O         -4.6360   20.2370  -30.3430 O.2   119  GLU119     -0.2718
     60  CB        -3.7400   18.0920  -28.0510 C.3   119  GLU119      0.0402
     61  CG        -2.4080   18.8010  -28.1230 C.3   119  GLU119      0.1161
     62  CD        -1.3750   18.1170  -27.2500 C.2   119  GLU119      0.3649
     63  OE1       -1.6520   16.9800  -26.8160 O.co2 119  GLU119     -0.2457
     64  OE2       -0.2990   18.6990  -27.0010 O.co2 119  GLU119     -0.2457
     65  N         -5.8120   18.3230  -30.4980 N.am  120  VAL120     -0.1980
     66  CA        -6.1090   18.4470  -31.9280 C.3   120  VAL120      0.1595
     67  C         -7.4320   17.7170  -32.1640 C.2   120  VAL120      0.2287
     68  O         -7.8100   16.8420  -31.3940 O.2   120  VAL120     -0.2864
     69  CB        -5.0200   17.8100  -32.8400 C.3   120  VAL120      0.0276
     70  CG1       -3.7200   18.6130  -32.7660 C.3   120  VAL120      0.0022
     71  CG2       -4.7920   16.3570  -32.4390 C.3   120  VAL120      0.0022
     72  N          3.3720    9.4350  -31.9410 N.3   131  TYR131     -0.1241
     73  CA         3.4270    9.6860  -33.3780 C.3   131  TYR131      0.1605
     74  C          3.4630    8.3380  -34.0880 C.2   131  TYR131      0.2264
     75  O          4.4750    7.9600  -34.6730 O.2   131  TYR131     -0.2867
     76  CB         4.6730   10.5060  -33.7230 C.3   131  TYR131      0.0534
     77  CG         4.7300   11.8490  -33.0270 C.ar  131  TYR131     -0.0201
     78  CD1        5.8850   12.2600  -32.3630 C.ar  131  TYR131     -0.0009
     79  CD2        3.6220   12.6960  -33.0070 C.ar  131  TYR131     -0.0009
     80  CE1        5.9340   13.4790  -31.6920 C.ar  131  TYR131      0.0417
     81  CE2        3.6590   13.9160  -32.3390 C.ar  131  TYR131      0.0417
     82  CZ         4.8170   14.3000  -31.6810 C.ar  131  TYR131      0.1957
     83  OH         4.8380   15.4920  -30.9940 O.3   131  TYR131     -0.2866
     84  N          1.1890    7.5510  -41.5360 N.3   139  TRP139     -0.1241
     85  CA         0.5700    7.9120  -40.2640 C.3   139  TRP139      0.1605
     86  C         -0.6630    7.0670  -39.9720 C.2   139  TRP139      0.2264
     87  O         -1.5540    6.9340  -40.8080 O.2   139  TRP139     -0.2867
     88  CB         0.2040    9.4010  -40.2420 C.3   139  TRP139      0.0550
     89  CG         1.4040   10.2960  -40.1570 C.ar  139  TRP139      0.0003
     90  CD1        2.1260   10.8020  -41.1970 C.ar  139  TRP139      0.0946
     91  CD2        2.0560   10.7440  -38.9610 C.ar  139  TRP139      0.0152
     92  NE1        3.1880   11.5370  -40.7260 N.ar  139  TRP139     -0.2442
     93  CE2        3.1700   11.5170  -39.3570 C.ar  139  TRP139      0.0810
     94  CE3        1.8080   10.5620  -37.5930 C.ar  139  TRP139      0.0012
     95  CZ2        4.0360   12.1130  -38.4340 C.ar  139  TRP139      0.0191
     96  CZ3        2.6670   11.1540  -36.6730 C.ar  139  TRP139      0.0001
     97  CH2        3.7700   11.9200  -37.1000 C.ar  139  TRP139      0.0015
     98  N         -6.8100   23.7960  -31.8970 N.3   169  ASN169     -0.1240
     99  CA        -6.7210   23.4980  -33.3250 C.3   169  ASN169      0.1653
    100  C         -8.0630   23.0810  -33.9180 C.2   169  ASN169      0.2266
    101  O         -8.1260   22.3130  -34.8810 O.2   169  ASN169     -0.2867
    102  CB        -5.6580   22.4170  -33.5860 C.3   169  ASN169      0.1155
    103  CG        -4.2460   22.9100  -33.3110 C.2   169  ASN169      0.2627
    104  OD1       -3.7560   23.8340  -33.9650 O.2   169  ASN169     -0.2716
    105  ND2       -3.5820   22.2890  -32.3470 N.am  169  ASN169     -0.0877
    106  N         -1.4260   30.3260  -29.2750 N.3   218  TYR218     -0.1241
    107  CA        -0.1860   29.6260  -29.1500 C.3   218  TYR218      0.1605
    108  C          0.7750   30.1450  -30.1700 C.2   218  TYR218      0.2264
    109  O          0.3670   30.7380  -31.1710 O.2   218  TYR218     -0.2867
    110  CB        -0.4610   28.1450  -29.2220 C.3   218  TYR218      0.0534
    111  CG        -0.7010   27.4400  -30.5720 C.ar  218  TYR218     -0.0201
    112  CD1        0.2380   27.4730  -31.6050 C.ar  218  TYR218     -0.0009
    113  CD2       -1.8520   26.6960  -30.7520 C.ar  218  TYR218     -0.0009
    114  CE1        0.0480   26.7570  -32.7770 C.ar  218  TYR218      0.0417
    115  CE2       -2.0510   25.9540  -31.9120 C.ar  218  TYR218      0.0417
    116  CZ        -1.0940   25.9840  -32.9090 C.ar  218  TYR218      0.1957
    117  OH        -1.2940   25.2440  -34.0460 O.3   218  TYR218     -0.2866
    118  N         12.5200   22.2000  -39.2540 N.3   228  ILE228     -0.1231
    119  CA        12.1250   20.8010  -39.1700 C.3   228  ILE228      0.1692
    120  C         10.6060   20.6210  -39.1810 C.2   228  ILE228      0.2592
    121  O         10.1020   19.6390  -39.7240 O.2   228  ILE228     -0.2718
    122  CB        12.7110   20.1540  -37.8920 C.3   228  ILE228      0.0266
    123  CG1       14.2380   20.2500  -37.9280 C.3   228  ILE228      0.0019
    124  CG2       12.2720   18.7030  -37.7850 C.3   228  ILE228      0.0020
    125  CD1       14.9080   20.0050  -36.5900 C.3   228  ILE228      0.0001
    126  N          9.8720   21.5640  -38.5940 N.am  229  TRP229     -0.1976
    127  CA         8.4150   21.4520  -38.5640 C.3   229  TRP229      0.1640
    128  C          7.6570   22.7620  -38.7690 C.2   229  TRP229      0.2290
    129  O          6.4380   22.7550  -38.9190 O.2   229  TRP229     -0.2864
    130  CB         7.9600   20.8280  -37.2460 C.3   229  TRP229      0.0576
    131  CG         8.3590   21.6180  -36.0410 C.ar  229  TRP229      0.0006
    132  CD1        9.5940   21.6530  -35.4550 C.ar  229  TRP229      0.0946
    133  CD2        7.5250   22.4960  -35.2730 C.ar  229  TRP229      0.0152
    134  NE1        9.5800   22.4950  -34.3690 N.ar  229  TRP229     -0.2442
    135  CE2        8.3240   23.0260  -34.2340 C.ar  229  TRP229      0.0810
    136  CE3        6.1810   22.8850  -35.3610 C.ar  229  TRP229      0.0012
    137  CZ2        7.8250   23.9270  -33.2880 C.ar  229  TRP229      0.0191
    138  CZ3        5.6820   23.7830  -34.4170 C.ar  229  TRP229      0.0001
    139  CH2        6.5060   24.2930  -33.3930 C.ar  229  TRP229      0.0015
    140  N          2.4850   27.1120  -38.3240 N.3   308  VAL308     -0.1245
    141  CA         2.2270   25.7230  -37.9460 C.3   308  VAL308      0.1561
    142  C          1.1170   25.1330  -38.8250 C.2   308  VAL308      0.2260
    143  O         -0.0700   25.2490  -38.5240 O.2   308  VAL308     -0.2867
    144  CB         1.8500   25.6420  -36.4560 C.3   308  VAL308      0.0252
    145  CG1        1.7910   24.1840  -35.9980 C.3   308  VAL308      0.0019
    146  CG2        2.8650   26.4140  -35.6360 C.3   308  VAL308      0.0019
    147  N          1.1920   21.6930  -40.1050 N.3   310  LEU310     -0.1245
    148  CA         0.9720   20.2620  -39.8750 C.3   310  LEU310      0.1561
    149  C          0.5630   19.5940  -41.1860 C.2   310  LEU310      0.2260
    150  O         -0.4100   18.8280  -41.2510 O.2   310  LEU310     -0.2867
    151  CB        -0.1340   20.0690  -38.8410 C.3   310  LEU310      0.0270
    152  CG        -0.0050   20.8910  -37.5540 C.3   310  LEU310      0.0019
    153  CD1       -1.3120   20.8050  -36.7910 C.3   310  LEU310      0.0001
    154  CD2        1.1590   20.4020  -36.7070 C.3   310  LEU310      0.0001
    155  N          1.7990   17.1790  -42.7860 N.3   312  MET312     -0.1230
    156  CA         1.8430   15.7180  -42.8130 C.3   312  MET312      0.1702
    157  C          0.5270   15.0540  -42.4330 C.2   312  MET312      0.2592
    158  O          0.3670   13.8490  -42.6200 O.2   312  MET312     -0.2718
    159  CB         2.9700   15.1790  -41.9180 C.3   312  MET312      0.0401
    160  CG         2.8850   15.5480  -40.4540 C.3   312  MET312      0.0596
    161  SD         3.4190   17.2290  -40.1180 S.3   312  MET312     -0.1393
    162  CE         3.1530   17.2830  -38.3320 C.3   312  MET312      0.0692
    163  N         -0.4240   15.8270  -41.9200 N.am  313  TRP313     -0.1976
    164  CA        -1.7010   15.2470  -41.5370 C.3   313  TRP313      0.1640
    165  C         -2.8790   15.8010  -42.3260 C.2   313  TRP313      0.2290
    166  O         -4.0310   15.5960  -41.9460 O.2   313  TRP313     -0.2864
    167  CB        -1.9550   15.4540  -40.0380 C.3   313  TRP313      0.0576
    168  CG        -0.8850   14.8620  -39.1610 C.ar  313  TRP313      0.0006
    169  CD1       -0.2580   13.6610  -39.3350 C.ar  313  TRP313      0.0946
    170  CD2       -0.3420   15.4280  -37.9610 C.ar  313  TRP313      0.0152
    171  NE1        0.6400   13.4430  -38.3200 N.ar  313  TRP313     -0.2442
    172  CE2        0.6080   14.5110  -37.4610 C.ar  313  TRP313      0.0810
    173  CE3       -0.5680   16.6210  -37.2580 C.ar  313  TRP313      0.0012
    174  CZ2        1.3350   14.7470  -36.2890 C.ar  313  TRP313      0.0191
    175  CZ3        0.1570   16.8550  -36.0890 C.ar  313  TRP313      0.0001
    176  CH2        1.0960   15.9190  -35.6190 C.ar  313  TRP313      0.0015
@<TRIPOS>BOND
     1   156   155    1
     2   156   157    1
     3   156   159    1
     4   158   157    2
     5   157   163   am
     6   165   166    2
     7   165   164    1
     8   163   164    1
     9   159   160    1
    10   164   167    1
    11    84    85    1
    12   150   149    2
    13    90    92   ar
    14    90    89   ar
    15   149   148    1
    16    87    86    2
    17    92    93   ar
    18   160   161    1
    19    85    88    1
    20    85    86    1
    21    88    89    1
    22    89    91   ar
    23   161   162    1
    24   147   148    1
    25   167   168    1
    26   148   151    1
    27   121   120    2
    28    93    91   ar
    29    93    95   ar
    30   169   168   ar
    31   169   171   ar
    32   118   119    1
    33   120   119    1
    34   120   126   am
    35   119   122    1
    36   168   170   ar
    37    91    94   ar
    38   129   128    2
    39   151   152    1
    40   142   143    2
    41   142   141    1
    42   128   127    1
    43   126   127    1
    44   127   130    1
    45    95    97   ar
    46   140   141    1
    47   171   172   ar
    48   170   172   ar
    49   170   173   ar
    50   141   144    1
    51   123   122    1
    52   123   125    1
    53   122   124    1
    54    94    96   ar
    55   152   153    1
    56   152   154    1
    57   172   174   ar
    58   173   175   ar
    59   130   131    1
    60    97    96   ar
    61   144   145    1
    62   144   146    1
    63   174   176   ar
    64   175   176   ar
    65   131   132   ar
    66   131   133   ar
    67   132   134   ar
    68   136   133   ar
    69   136   138   ar
    70   133   135   ar
    71   101   100    2
    72    75    74    2
    73   138   139   ar
    74   134   135   ar
    75   135   137   ar
    76    74    73    1
    77   117   116    1
    78   104   103    2
    79   100    99    1
    80    76    73    1
    81    76    77    1
    82   102    99    1
    83   102   103    1
    84   139   137   ar
    85    73    72    1
    86    99    98    1
    87   103   105   am
    88    77    79   ar
    89    77    78   ar
    90    79    81   ar
    91   116   114   ar
    92   116   115   ar
    93    69    70    1
    94    69    71    1
    95    69    66    1
    96   114   112   ar
    97    78    80   ar
    98    81    82   ar
    99    67    66    1
   100    67    68    2
   101    55    53   ar
   102    55    54   ar
   103    53    51   ar
   104    66    65    1
   105   115   113   ar
   106    80    82   ar
   107    82    83    1
   108   112   111   ar
   109   109   108    2
   110    54    52   ar
   111    51    50   ar
   112    51    49   ar
   113   113   111   ar
   114   111   110    1
   115    50    48   ar
   116    65    58   am
   117    59    58    2
   118    12    11    1
   119   108   107    1
   120    52    49   ar
   121    58    57    1
   122    49    47   ar
   123    10    11   ar
   124    10     8   ar
   125    11     9   ar
   126    48    47   ar
   127   106   107    1
   128   110   107    1
   129     8     6   ar
   130    47    46    1
   131     9     7   ar
   132    57    60    1
   133    57    56    1
   134    44    45    2
   135    44    43    1
   136    61    60    1
   137    61    62    1
   138    20    18    1
   139     6     7   ar
   140     6     5    1
   141    43    46    1
   142    43    42    1
   143    62    64   ar
   144    62    63   ar
   145     5     2    1
   146    18    17    1
   147    17    19    1
   148    17    14    1
   149    32    31    1
   150    29    31   ar
   151    29    27   ar
   152    16    15    2
   153     4     3    2
   154     3     2    1
   155    31    30   ar
   156    27    26   ar
   157     2     1    1
   158    39    40    1
   159    39    38    1
   160    15    14    1
   161    15    21   am
   162    40    41    1
   163    14    13    1
   164    30    28   ar
   165    22    21    1
   166    22    23    1
   167    22    25    1
   168    26    28   ar
   169    26    25    1
   170    37    38    1
   171    37    34    1
   172    24    23    2
   173    35    34    1
   174    35    36    2
   175    34    33    1
