@<TRIPOS>MOLECULE
tmp/3cmgA00.pdb
 101 94 0 0 0
SMALL
GASTEIGER

@<TRIPOS>ATOM
      1  N         -7.7950   38.0520   19.5020 N.3   156  ASP156     -0.1239
      2  CA        -6.3940   38.4410   19.3380 C.3   156  ASP156      0.1674
      3  C         -5.5340   37.1910   19.2460 C.2   156  ASP156      0.2266
      4  O         -5.0780   36.7150   20.2740 O.2   156  ASP156     -0.2867
      5  CB        -5.9540   39.2530   20.5700 C.3   156  ASP156      0.1410
      6  CG        -4.5480   39.8610   20.4320 C.2   156  ASP156      0.3668
      7  OD1       -3.9200   39.7860   19.3490 O.co2 156  ASP156     -0.2456
      8  OD2       -4.0470   40.4290   21.4310 O.co2 156  ASP156     -0.2456
      9  N         -3.3440   39.8300   28.9760 N.3   163  TYR163     -0.1241
     10  CA        -1.9230   39.5970   29.1850 C.3   163  TYR163      0.1605
     11  C         -1.5490   40.2170   30.5240 C.2   163  TYR163      0.2264
     12  O         -1.6610   41.4390   30.7040 O.2   163  TYR163     -0.2867
     13  CB        -1.1250   40.2380   28.0490 C.3   163  TYR163      0.0534
     14  CG        -1.6660   39.8120   26.7160 C.ar  163  TYR163     -0.0201
     15  CD1       -1.3590   38.5590   26.1970 C.ar  163  TYR163     -0.0009
     16  CD2       -2.5590   40.6290   26.0080 C.ar  163  TYR163     -0.0009
     17  CE1       -1.9080   38.1340   24.9770 C.ar  163  TYR163      0.0417
     18  CE2       -3.0990   40.2180   24.7910 C.ar  163  TYR163      0.0417
     19  CZ        -2.7650   38.9700   24.2830 C.ar  163  TYR163      0.1957
     20  OH        -3.2900   38.5620   23.0630 O.3   163  TYR163     -0.2866
     21  N          1.1530   41.2290   32.3960 N.3   165  VAL165     -0.1245
     22  CA         2.5610   41.4630   32.1270 C.3   165  VAL165      0.1561
     23  C          3.2680   41.7250   33.4440 C.2   165  VAL165      0.2260
     24  O          2.9410   42.6810   34.1400 O.2   165  VAL165     -0.2867
     25  CB         2.7390   42.6660   31.1870 C.3   165  VAL165      0.0252
     26  CG1        4.2490   42.9500   30.9580 C.3   165  VAL165      0.0019
     27  CG2        2.0090   42.4230   29.8480 C.3   165  VAL165      0.0019
     28  N         -3.1130   43.8990   30.5940 N.3   179  LYS179     -0.1245
     29  CA        -3.5400   44.3970   29.2950 C.3   179  LYS179      0.1561
     30  C         -4.7250   43.5640   28.8180 C.2   179  LYS179      0.2260
     31  O         -4.6570   42.3390   28.7780 O.2   179  LYS179     -0.2867
     32  CB        -2.3930   44.3240   28.3090 C.3   179  LYS179      0.0271
     33  CG        -1.1810   45.0640   28.8000 C.3   179  LYS179      0.0035
     34  CD        -0.0560   45.0360   27.8070 C.3   179  LYS179      0.0206
     35  CE         1.1270   45.7440   28.4380 C.3   179  LYS179      0.1093
     36  NZ         2.1080   46.1850   27.4230 N.3   179  LYS179     -0.1314
     37  N         -7.8880   43.0440   25.9730 N.3   181  ASN181     -0.1240
     38  CA        -8.5480   43.3540   24.6900 C.3   181  ASN181      0.1653
     39  C        -10.0380   43.4650   24.8640 C.2   181  ASN181      0.2266
     40  O        -10.6710   42.5560   25.4100 O.2   181  ASN181     -0.2867
     41  CB        -8.3030   42.2270   23.6740 C.3   181  ASN181      0.1155
     42  CG        -6.8620   42.1390   23.2240 C.2   181  ASN181      0.2627
     43  OD1       -6.3160   41.0500   23.1350 O.2   181  ASN181     -0.2716
     44  ND2       -6.2500   43.2690   22.9170 N.am  181  ASN181     -0.0877
     45  N         -7.1490   47.9850   23.0990 N.3   220  LEU220     -0.1245
     46  CA        -6.3920   47.3910   24.1910 C.3   220  LEU220      0.1561
     47  C         -6.3890   48.3560   25.3900 C.2   220  LEU220      0.2260
     48  O         -5.9770   49.5130   25.2520 O.2   220  LEU220     -0.2867
     49  CB        -4.9710   47.0930   23.7450 C.3   220  LEU220      0.0270
     50  CG        -4.1090   46.3810   24.7840 C.3   220  LEU220      0.0019
     51  CD1       -4.4670   44.9050   24.8400 C.3   220  LEU220      0.0001
     52  CD2       -2.6380   46.5610   24.4330 C.3   220  LEU220      0.0001
     53  N          3.3960   32.9780   21.7860 N.3   377  ILE377     -0.1231
     54  CA         3.5690   33.9710   22.8750 C.3   377  ILE377      0.1692
     55  C          2.2460   34.5310   23.4060 C.2   377  ILE377      0.2591
     56  O          2.0210   34.5540   24.6160 O.2   377  ILE377     -0.2718
     57  CB         4.5640   35.1070   22.4470 C.3   377  ILE377      0.0266
     58  CG1        5.9360   34.4980   22.1940 C.3   377  ILE377      0.0019
     59  CG2        4.6570   36.2060   23.5250 C.3   377  ILE377      0.0020
     60  CD1        6.9070   35.4900   21.6450 C.3   377  ILE377      0.0001
     61  N          1.3380   34.9380   22.5150 N.am  378  ARG378     -0.1980
     62  CA         0.0870   35.5210   22.9590 C.3   378  ARG378      0.1597
     63  C         -0.8510   34.4780   23.5610 C.2   378  ARG378      0.2287
     64  O         -1.5170   34.7430   24.5490 O.2   378  ARG378     -0.2864
     65  CB        -0.6200   36.2860   21.8190 C.3   378  ARG378      0.0334
     66  CG         0.2240   37.4810   21.3500 C.3   378  ARG378      0.0492
     67  CD        -0.5810   38.5070   20.5790 C.3   378  ARG378      0.2205
     68  NE         0.3230   39.5230   20.0650 N.pl3 378  ARG378     -0.0865
     69  CZ        -0.0390   40.5880   19.3660 C.cat 378  ARG378      0.5346
     70  NH1       -1.3180   40.8220   19.1050 N.pl3 378  ARG378      0.1354
     71  NH2        0.9030   41.4190   18.9190 N.pl3 378  ARG378      0.1354
     72  N          0.9120   33.2750   27.0160 N.3   381  TYR381     -0.1241
     73  CA         1.5780   34.3410   27.7560 C.3   381  TYR381      0.1605
     74  C          1.5340   34.2130   29.2860 C.2   381  TYR381      0.2264
     75  O          2.5230   34.5380   29.9700 O.2   381  TYR381     -0.2867
     76  CB         0.9610   35.6970   27.3720 C.3   381  TYR381      0.0534
     77  CG         1.8280   36.8190   27.8530 C.ar  381  TYR381     -0.0201
     78  CD1        2.9400   37.2200   27.1100 C.ar  381  TYR381     -0.0009
     79  CD2        1.5930   37.4290   29.0890 C.ar  381  TYR381     -0.0009
     80  CE1        3.7620   38.2200   27.5590 C.ar  381  TYR381      0.0417
     81  CE2        2.4240   38.4360   29.5440 C.ar  381  TYR381      0.0417
     82  CZ         3.5020   38.8230   28.7630 C.ar  381  TYR381      0.1957
     83  OH         4.3600   39.8130   29.1780 O.3   381  TYR381     -0.2866
     84  N         10.2200   41.7110   21.5810 N.3   415  GLN415     -0.1231
     85  CA         9.2690   42.8050   21.5340 C.3   415  GLN415      0.1698
     86  C          7.9090   42.3590   22.0760 C.2   415  GLN415      0.2592
     87  O          7.2350   43.0910   22.8180 O.2   415  GLN415     -0.2718
     88  CB         9.1570   43.3350   20.1040 C.3   415  GLN415      0.0381
     89  CG         7.9950   44.2740   19.8760 C.3   415  GLN415      0.0905
     90  CD         7.8350   44.6320   18.4080 C.2   415  GLN415      0.2608
     91  OE1        8.7050   45.2950   17.8190 O.2   415  GLN415     -0.2717
     92  NE2        6.7210   44.1870   17.8000 N.am  415  GLN415     -0.0878
     93  N          7.4890   41.1570   21.7110 N.am  416  GLU416     -0.1979
     94  CA         6.2100   40.6250   22.2270 C.3   416  GLU416      0.1602
     95  C          6.2880   40.3340   23.7310 C.2   416  GLU416      0.2287
     96  O          5.3210   40.5020   24.4690 O.2   416  GLU416     -0.2864
     97  CB         5.8510   39.3370   21.4890 C.3   416  GLU416      0.0415
     98  CG         5.4630   39.5490   20.0460 C.3   416  GLU416      0.1163
     99  CD         4.0070   40.0170   19.9100 C.2   416  GLU416      0.3649
    100  OE1        3.1370   39.5230   20.6620 O.co2 416  GLU416     -0.2457
    101  OE2        3.7330   40.8750   19.0430 O.co2 416  GLU416     -0.2457
@<TRIPOS>BOND
     1    92    90   am
     2    91    90    2
     3    90    89    1
     4    71    69    1
     5   101    99   ar
     6    70    69    1
     7     3     2    1
     8     3     4    2
     9     2     1    1
    10     2     5    1
    11     7     6   ar
    12    69    68    2
    13    89    88    1
    14    99    98    1
    15    99   100   ar
    16    98    97    1
    17    68    67    1
    18    88    85    1
    19     6     5    1
    20     6     8   ar
    21    67    66    1
    22    66    65    1
    23    97    94    1
    24    85    84    1
    25    85    86    1
    26    60    58    1
    27    93    86   am
    28    93    94    1
    29    53    54    1
    30    65    62    1
    31    86    87    2
    32    58    57    1
    33    94    95    1
    34    57    54    1
    35    57    59    1
    36    61    62    1
    37    61    55   am
    38    54    55    1
    39    44    42   am
    40    62    63    1
    41    20    19    1
    42    45    46    1
    43    43    42    2
    44    42    41    1
    45    55    56    2
    46    63    64    2
    47    41    38    1
    48    95    96    2
    49    49    46    1
    50    49    50    1
    51    46    47    1
    52    19    18   ar
    53    19    17   ar
    54    52    50    1
    55    38    39    1
    56    38    37    1
    57    50    51    1
    58    18    16   ar
    59    39    40    2
    60    17    15   ar
    61    48    47    2
    62    16    14   ar
    63    15    14   ar
    64    14    13    1
    65    72    73    1
    66    78    80   ar
    67    78    77   ar
    68    76    73    1
    69    76    77    1
    70    36    35    1
    71    80    82   ar
    72    73    74    1
    73    34    35    1
    74    34    33    1
    75    77    79   ar
    76    13    10    1
    77    32    33    1
    78    32    29    1
    79    82    83    1
    80    82    81   ar
    81    31    30    2
    82    30    29    1
    83     9    10    1
    84    79    81   ar
    85    10    11    1
    86    74    75    2
    87    29    28    1
    88    27    25    1
    89    11    12    2
    90    26    25    1
    91    25    22    1
    92    22    21    1
    93    22    23    1
    94    23    24    2
