@<TRIPOS>MOLECULE
tmp/3cmgA01.pdb
 82 75 0 0 0
SMALL
GASTEIGER

@<TRIPOS>ATOM
      1  N        -21.3460   38.1920   25.2750 N.3   148  ASP148     -0.1239
      2  CA       -22.0870   39.4240   25.1130 C.3   148  ASP148      0.1674
      3  C        -21.5940   40.1170   23.8480 C.2   148  ASP148      0.2266
      4  O        -20.4560   39.9010   23.4170 O.2   148  ASP148     -0.2867
      5  CB       -21.8340   40.3280   26.3330 C.3   148  ASP148      0.1410
      6  CG       -22.8540   41.4700   26.4530 C.2   148  ASP148      0.3668
      7  OD1      -23.8860   41.2630   27.1170 O.co2 148  ASP148     -0.2456
      8  OD2      -22.6260   42.5660   25.8850 O.co2 148  ASP148     -0.2456
      9  N        -20.6550   43.0150   23.8510 N.3   150  THR150     -0.1218
     10  CA       -19.5090   43.7670   24.3460 C.3   150  THR150      0.1862
     11  C        -18.7230   42.8180   25.2080 C.2   150  THR150      0.2287
     12  O        -19.2200   42.3340   26.2290 O.2   150  THR150     -0.2866
     13  CB       -19.9560   44.9590   25.2230 C.3   150  THR150      0.1770
     14  OG1      -20.8130   45.8120   24.4460 O.3   150  THR150     -0.2211
     15  CG2      -18.7190   45.7410   25.7190 C.3   150  THR150      0.0375
     16  N        -16.3380   45.6870   20.9640 N.3   184  ASN184     -0.1240
     17  CA       -17.7390   46.0790   21.0610 C.3   184  ASN184      0.1653
     18  C        -18.5050   45.9860   19.7510 C.2   184  ASN184      0.2266
     19  O        -18.1080   46.5830   18.7460 O.2   184  ASN184     -0.2867
     20  CB       -17.8720   47.5110   21.6080 C.3   184  ASN184      0.1155
     21  CG       -19.3210   47.8820   21.8860 C.2   184  ASN184      0.2627
     22  OD1      -20.1020   47.0450   22.3270 O.2   184  ASN184     -0.2716
     23  ND2      -19.6790   49.1390   21.6400 N.am  184  ASN184     -0.0877
     24  N        -22.0930   46.2060   20.1730 N.3   186  ALA186     -0.1231
     25  CA       -23.3070   46.9270   20.5160 C.3   186  ALA186      0.1694
     26  C        -23.1500   48.4260   20.2110 C.2   186  ALA186      0.2592
     27  O        -22.1050   48.8690   19.7170 O.2   186  ALA186     -0.2718
     28  CB       -23.6550   46.6860   21.9650 C.3   186  ALA186      0.0304
     29  N        -24.1860   49.2080   20.4920 N.am  187  ALA187     -0.1966
     30  CA       -24.1170   50.6640   20.3090 C.3   187  ALA187      0.1728
     31  C        -22.9490   51.3020   21.0850 C.2   187  ALA187      0.2616
     32  O        -22.4740   50.7380   22.0820 O.2   187  ALA187     -0.2715
     33  CB       -25.4420   51.3020   20.7210 C.3   187  ALA187      0.0334
     34  N        -22.4890   52.4660   20.6150 N.am  188  ASP188     -0.1957
     35  CA       -21.5360   53.3000   21.3530 C.3   188  ASP188      0.1840
     36  C        -21.9620   53.3610   22.8190 C.2   188  ASP188      0.2623
     37  O        -23.1430   53.5430   23.1210 O.2   188  ASP188     -0.2715
     38  CB       -21.5100   54.7310   20.7850 C.3   188  ASP188      0.1450
     39  CG       -20.6170   54.8790   19.5500 C.2   188  ASP188      0.3671
     40  OD1      -20.6820   54.0230   18.6410 O.co2 188  ASP188     -0.2456
     41  OD2      -19.8530   55.8720   19.4790 O.co2 188  ASP188     -0.2456
     42  N        -21.0120   53.1880   23.7340 N.am  189  GLY189     -0.1940
     43  CA       -21.3290   53.2880   25.1520 C.3   189  GLY189      0.2014
     44  C        -20.1020   53.1910   26.0200 C.2   189  GLY189      0.2640
     45  O        -18.9720   53.1130   25.5310 O.2   189  GLY189     -0.2714
     46  N        -20.3230   53.2000   27.3220 N.am  190  THR190     -0.1936
     47  CA       -19.2310   53.0470   28.2520 C.3   190  THR190      0.2028
     48  C        -19.4630   51.7620   29.0390 C.2   190  THR190      0.2642
     49  O        -20.5730   51.2350   29.0780 O.2   190  THR190     -0.2714
     50  CB       -19.1570   54.2410   29.2320 C.3   190  THR190      0.1808
     51  OG1      -20.4100   54.3560   29.9160 O.3   190  THR190     -0.2208
     52  CG2      -18.8620   55.5520   28.4860 C.3   190  THR190      0.0379
     53  N        -18.4050   51.2500   29.6500 N.am  191  ALA191     -0.1977
     54  CA       -18.5290   50.0780   30.4970 C.3   191  ALA191      0.1597
     55  C        -17.4540   50.1640   31.5440 C.2   191  ALA191      0.2287
     56  O        -16.5160   50.9620   31.4200 O.2   191  ALA191     -0.2864
     57  CB       -18.3910   48.8010   29.6860 C.3   191  ALA191      0.0319
     58  N        -16.4770   52.7280   24.5960 N.3   213  LEU213     -0.1245
     59  CA       -16.3710   51.7940   23.4760 C.3   213  LEU213      0.1561
     60  C        -17.2720   52.2040   22.3080 C.2   213  LEU213      0.2260
     61  O        -18.4960   52.1080   22.3960 O.2   213  LEU213     -0.2867
     62  CB       -16.6940   50.3600   23.9460 C.3   213  LEU213      0.0270
     63  CG       -15.7400   49.8110   25.0280 C.3   213  LEU213      0.0019
     64  CD1      -16.3240   48.6340   25.8140 C.3   213  LEU213      0.0001
     65  CD2      -14.4000   49.4430   24.4210 C.3   213  LEU213      0.0001
     66  N        -21.9380   46.7630   33.3910 N.3   250  LYS250     -0.1245
     67  CA       -22.7680   47.8580   32.9200 C.3   250  LYS250      0.1561
     68  C        -24.0260   47.9750   33.7830 C.2   250  LYS250      0.2260
     69  O        -24.7610   46.9960   33.9700 O.2   250  LYS250     -0.2867
     70  CB       -23.1430   47.6640   31.4540 C.3   250  LYS250      0.0271
     71  CG       -23.9590   48.8160   30.8690 C.3   250  LYS250      0.0035
     72  CD       -23.2850   50.1730   31.1150 C.3   250  LYS250      0.0206
     73  CE       -23.8460   51.2450   30.1890 C.3   250  LYS250      0.1093
     74  NZ       -23.2140   52.5550   30.4790 N.3   250  LYS250     -0.1314
     75  N        -21.4260   41.7190   32.5460 N.3   255  ILE255     -0.1245
     76  CA       -21.8180   41.3260   31.1990 C.3   255  ILE255      0.1561
     77  C        -20.8630   40.3320   30.5390 C.2   255  ILE255      0.2260
     78  O        -21.2540   39.6360   29.6090 O.2   255  ILE255     -0.2867
     79  CB       -22.0510   42.5350   30.2830 C.3   255  ILE255      0.0252
     80  CG1      -20.7660   43.3040   30.0660 C.3   255  ILE255      0.0019
     81  CG2      -23.1310   43.4560   30.8750 C.3   255  ILE255      0.0019
     82  CD1      -20.8640   44.2460   28.9160 C.3   255  ILE255      0.0001
@<TRIPOS>BOND
     1    40    39   ar
     2    19    18    2
     3    41    39   ar
     4    39    38    1
     5    27    26    2
     6    18    17    1
     7    24    25    1
     8    26    29   am
     9    26    25    1
    10    30    29    1
    11    30    33    1
    12    30    31    1
    13    25    28    1
    14    34    31   am
    15    34    35    1
    16    38    35    1
    17    16    17    1
    18    17    20    1
    19    31    32    2
    20    35    36    1
    21    20    21    1
    22    23    21   am
    23    21    22    2
    24    60    61    2
    25    60    59    1
    26    36    37    2
    27    36    42   am
    28     4     3    2
    29    59    62    1
    30    59    58    1
    31    42    43    1
    32     3     2    1
    33     9    10    1
    34    62    63    1
    35    10    11    1
    36    10    13    1
    37    65    63    1
    38    14    13    1
    39    63    64    1
    40     2     1    1
    41     2     5    1
    42    43    44    1
    43    11    12    2
    44    13    15    1
    45    45    44    2
    46     8     6   ar
    47    44    46   am
    48     5     6    1
    49     6     7   ar
    50    46    47    1
    51    47    48    1
    52    47    50    1
    53    52    50    1
    54    82    80    1
    55    48    49    2
    56    48    53   am
    57    50    51    1
    58    78    77    2
    59    53    54    1
    60    57    54    1
    61    80    79    1
    62    73    74    1
    63    73    72    1
    64    79    81    1
    65    79    76    1
    66    54    55    1
    67    77    76    1
    68    71    72    1
    69    71    70    1
    70    76    75    1
    71    56    55    2
    72    70    67    1
    73    67    66    1
    74    67    68    1
    75    68    69    2
