@<TRIPOS>MOLECULE
tmp/3cmjA00.pdb
 144 146 0 0 0
SMALL
GASTEIGER

@<TRIPOS>ATOM
      1  N         39.2950   -1.5990  -11.1760 N.3    17  GLN17      -0.1245
      2  CA        40.1420   -1.0610  -10.1320 C.3    17  GLN17       0.1566
      3  C         41.4840   -1.7890  -10.0340 C.2    17  GLN17       0.2260
      4  O         42.4520   -1.2140   -9.5290 O.2    17  GLN17      -0.2867
      5  CB        39.4160   -1.0660   -8.7900 C.3    17  GLN17       0.0367
      6  CG        38.2610   -0.0810   -8.7840 C.3    17  GLN17       0.0905
      7  CD        37.5570   -0.0180   -7.4450 C.2    17  GLN17       0.2608
      8  OE1       36.6240   -0.7750   -7.2050 O.2    17  GLN17      -0.2717
      9  NE2       37.9790    0.9070   -6.5790 N.am   17  GLN17      -0.0878
     10  N         30.2990   -4.0180  -11.9820 N.3   118  HIS118     -0.1226
     11  CA        30.9040   -3.1150  -11.0330 C.3   118  HIS118      0.1752
     12  C         31.3980   -1.8520  -11.7900 C.2   118  HIS118      0.2596
     13  O         32.4920   -1.4550  -11.6720 O.2   118  HIS118     -0.2718
     14  CB        31.9930   -3.8550  -10.2720 C.3   118  HIS118      0.0759
     15  CG        32.3600   -3.2500   -8.9590 C.ar  118  HIS118      0.0818
     16  ND1       32.4680   -3.9710   -7.8010 N.ar  118  HIS118     -0.2268
     17  CD2       32.6650   -1.9800   -8.6350 C.ar  118  HIS118      0.1154
     18  CE1       32.8220   -3.1730   -6.8170 C.ar  118  HIS118      0.1986
     19  NE2       32.9700   -1.9630   -7.2940 N.ar  118  HIS118     -0.2212
     20  N         30.4650   -1.2820  -12.5390 N.am  119  TRP119     -0.1976
     21  CA        30.5280    0.0820  -13.0360 C.3   119  TRP119      0.1640
     22  C         31.2510    0.3460  -14.3870 C.2   119  TRP119      0.2290
     23  O         31.2190    1.4080  -14.8890 O.2   119  TRP119     -0.2864
     24  CB        31.1070    1.0370  -12.0090 C.3   119  TRP119      0.0576
     25  CG        30.4790    1.0350  -10.6850 C.ar  119  TRP119      0.0006
     26  CD1       29.3670    0.3860  -10.2880 C.ar  119  TRP119      0.0946
     27  CD2       30.9680    1.7060   -9.5560 C.ar  119  TRP119      0.0152
     28  NE1       29.1380    0.6010   -8.9710 N.ar  119  TRP119     -0.2442
     29  CE2       30.1020    1.4410   -8.4970 C.ar  119  TRP119      0.0810
     30  CE3       32.0360    2.5550   -9.3390 C.ar  119  TRP119      0.0012
     31  CZ2       30.2980    1.9740   -7.2520 C.ar  119  TRP119      0.0191
     32  CZ3       32.2140    3.0680   -8.1170 C.ar  119  TRP119      0.0001
     33  CH2       31.3740    2.7770   -7.0820 C.ar  119  TRP119      0.0015
     34  N         26.6670   -4.0490   -8.4210 N.3   162  ASN162     -0.1225
     35  CA        27.3060   -3.4340   -7.2710 C.3   162  ASN162      0.1785
     36  C         26.8620   -1.9840   -7.1540 C.2   162  ASN162      0.2597
     37  O         27.0350   -1.1940   -8.0910 O.2   162  ASN162     -0.2718
     38  CB        28.8260   -3.4720   -7.4190 C.3   162  ASN162      0.1169
     39  CG        29.5350   -2.8290   -6.2470 C.2   162  ASN162      0.2627
     40  OD1       29.5740   -3.3970   -5.1570 O.2   162  ASN162     -0.2716
     41  ND2       30.0570   -1.6120   -6.4530 N.am  162  ASN162     -0.0877
     42  N         26.3020   -1.6490   -5.9940 N.am  163  GLU163     -0.1979
     43  CA        25.9670   -0.2580   -5.6080 C.3   163  GLU163      0.1602
     44  C         25.2520    0.5400   -6.7010 C.2   163  GLU163      0.2287
     45  O         25.7570    1.5620   -7.1700 O.2   163  GLU163     -0.2864
     46  CB        27.2310    0.4870   -5.1460 C.3   163  GLU163      0.0415
     47  CG        27.9410   -0.1880   -3.9530 C.3   163  GLU163      0.1163
     48  CD        29.0750    0.6480   -3.3750 C.2   163  GLU163      0.3649
     49  OE1       29.4370    1.6860   -3.9930 O.co2 163  GLU163     -0.2457
     50  OE2       29.6020    0.2840   -2.2900 O.co2 163  GLU163     -0.2457
     51  N         31.3830   10.3790  -11.4540 N.3   177  PHE177     -0.1241
     52  CA        31.7900    9.0840  -12.0150 C.3   177  PHE177      0.1605
     53  C         31.2160    8.9260  -13.4230 C.2   177  PHE177      0.2264
     54  O         30.2590    9.6060  -13.8030 O.2   177  PHE177     -0.2867
     55  CB        31.2560    7.8950  -11.1760 C.3   177  PHE177      0.0534
     56  CG        31.9040    7.7120   -9.8110 C.ar  177  PHE177     -0.0203
     57  CD1       32.9760    8.5060   -9.3710 C.ar  177  PHE177     -0.0042
     58  CD2       31.4360    6.6960   -8.9670 C.ar  177  PHE177     -0.0042
     59  CE1       33.5430    8.2980   -8.1130 C.ar  177  PHE177     -0.0003
     60  CE2       32.0030    6.4830   -7.7040 C.ar  177  PHE177     -0.0003
     61  CZ        33.0500    7.2870   -7.2770 C.ar  177  PHE177     -0.0000
     62  N         30.5340    1.4090    4.9320 N.3   292  TYR292     -0.1241
     63  CA        31.7590    2.0610    5.3660 C.3   292  TYR292      0.1605
     64  C         31.5300    3.0270    6.5090 C.2   292  TYR292      0.2264
     65  O         32.3730    3.1310    7.3950 O.2   292  TYR292     -0.2867
     66  CB        32.3730    2.8150    4.1830 C.3   292  TYR292      0.0534
     67  CG        32.8680    1.8860    3.1070 C.ar  292  TYR292     -0.0201
     68  CD1       34.1670    1.3730    3.1520 C.ar  292  TYR292     -0.0009
     69  CD2       32.0410    1.4930    2.0490 C.ar  292  TYR292     -0.0009
     70  CE1       34.6370    0.5020    2.1710 C.ar  292  TYR292      0.0417
     71  CE2       32.5050    0.6100    1.0560 C.ar  292  TYR292      0.0417
     72  CZ        33.8030    0.1290    1.1180 C.ar  292  TYR292      0.1957
     73  OH        34.2610   -0.7390    0.1430 O.3   292  TYR292     -0.2866
     74  N         35.5460    9.8070    5.8510 N.3   320  TRP320     -0.1241
     75  CA        34.3690    9.0100    6.2350 C.3   320  TRP320      0.1605
     76  C         34.3880    8.6200    7.7050 C.2   320  TRP320      0.2264
     77  O         35.3630    8.0340    8.1770 O.2   320  TRP320     -0.2867
     78  CB        34.2750    7.7180    5.4060 C.3   320  TRP320      0.0550
     79  CG        34.1280    7.9580    3.9280 C.ar  320  TRP320      0.0003
     80  CD1       33.8600    9.1500    3.3070 C.ar  320  TRP320      0.0946
     81  CD2       34.2240    6.9780    2.8920 C.ar  320  TRP320      0.0152
     82  NE1       33.8070    8.9730    1.9490 N.ar  320  TRP320     -0.2442
     83  CE2       34.0140    7.6450    1.6670 C.ar  320  TRP320      0.0810
     84  CE3       34.4680    5.5960    2.8780 C.ar  320  TRP320      0.0012
     85  CZ2       34.0510    6.9840    0.4420 C.ar  320  TRP320      0.0191
     86  CZ3       34.5010    4.9390    1.6640 C.ar  320  TRP320      0.0001
     87  CH2       34.2880    5.6280    0.4600 C.ar  320  TRP320      0.0015
     88  N         31.3820   -5.6280    1.0790 N.3   347  GLU347     -0.1245
     89  CA        32.5010   -4.6780    1.2710 C.3   347  GLU347      0.1567
     90  C         32.4050   -4.0190    2.6380 C.2   347  GLU347      0.2260
     91  O         31.3260   -3.5800    3.0530 O.2   347  GLU347     -0.2867
     92  CB        32.4910   -3.5490    0.2470 C.3   347  GLU347      0.0388
     93  CG        32.5760   -3.9850   -1.2060 C.3   347  GLU347      0.1160
     94  CD        32.5700   -2.8340   -2.1920 C.2   347  GLU347      0.3649
     95  OE1       32.3450   -3.1060   -3.4010 O.co2 347  GLU347     -0.2457
     96  OE2       32.7690   -1.6650   -1.7750 O.co2 347  GLU347     -0.2457
     97  N         37.0160   -4.9750    1.9990 N.3   394  TRP394     -0.1241
     98  CA        37.4610   -4.1270    0.8880 C.3   394  TRP394      0.1605
     99  C         38.7520   -3.4540    1.3500 C.2   394  TRP394      0.2264
    100  O         38.7110   -2.6950    2.3130 O.2   394  TRP394     -0.2867
    101  CB        36.4370   -3.0420    0.5040 C.3   394  TRP394      0.0550
    102  CG        36.9060   -2.3130   -0.7180 C.ar  394  TRP394      0.0003
    103  CD1       37.6810   -1.1730   -0.7600 C.ar  394  TRP394      0.0946
    104  CD2       36.7300   -2.7290   -2.0740 C.ar  394  TRP394      0.0152
    105  NE1       37.9600   -0.8440   -2.0710 N.ar  394  TRP394     -0.2442
    106  CE2       37.3940   -1.7830   -2.8950 C.ar  394  TRP394      0.0810
    107  CE3       36.0520   -3.8010   -2.6810 C.ar  394  TRP394      0.0012
    108  CZ2       37.4030   -1.8780   -4.2890 C.ar  394  TRP394      0.0191
    109  CZ3       36.0490   -3.8910   -4.0810 C.ar  394  TRP394      0.0001
    110  CH2       36.7360   -2.9320   -4.8640 C.ar  394  TRP394      0.0015
    111  N         41.1050    3.9870   -6.8570 N.3   401  GLU401     -0.1231
    112  CA        39.9090    4.4110   -6.1400 C.3   401  GLU401      0.1699
    113  C         39.1370    5.4870   -6.9270 C.2   401  GLU401      0.2592
    114  O         38.9650    6.6310   -6.4690 O.2   401  GLU401     -0.2718
    115  CB        40.2790    4.8570   -4.7140 C.3   401  GLU401      0.0402
    116  CG        39.1120    5.3110   -3.8250 C.3   401  GLU401      0.1161
    117  CD        38.0170    4.2740   -3.6900 C.2   401  GLU401      0.3649
    118  OE1       38.2900    3.0650   -3.8810 O.co2 401  GLU401     -0.2457
    119  OE2       36.8620    4.6830   -3.3890 O.co2 401  GLU401     -0.2457
    120  N         38.7010    5.1100   -8.1290 N.am  402  TRP402     -0.1976
    121  CA        37.7890    5.9400   -8.9240 C.3   402  TRP402      0.1640
    122  C         38.3070    7.3780   -9.0510 C.2   402  TRP402      0.2290
    123  O         39.4620    7.5590   -9.4240 O.2   402  TRP402     -0.2864
    124  CB        36.3620    5.8450   -8.3520 C.3   402  TRP402      0.0576
    125  CG        35.9110    4.3970   -8.2280 C.ar  402  TRP402      0.0006
    126  CD1       35.6350    3.7240   -7.0740 C.ar  402  TRP402      0.0946
    127  CD2       35.7170    3.4490   -9.3010 C.ar  402  TRP402      0.0152
    128  NE1       35.2790    2.4140   -7.3550 N.ar  402  TRP402     -0.2442
    129  CE2       35.3390    2.2150   -8.7080 C.ar  402  TRP402      0.0810
    130  CE3       35.8610    3.5100  -10.6890 C.ar  402  TRP402      0.0012
    131  CZ2       35.0490    1.0730   -9.4660 C.ar  402  TRP402      0.0191
    132  CZ3       35.5780    2.3710  -11.4470 C.ar  402  TRP402      0.0001
    133  CH2       35.1730    1.1590  -10.8280 C.ar  402  TRP402      0.0015
    134  N         43.0270    1.3200    0.0850 N.3   410  PHE410     -0.1241
    135  CA        42.0450    0.5430    0.8590 C.3   410  PHE410      0.1605
    136  C         42.5430   -0.8950    1.1120 C.2   410  PHE410      0.2264
    137  O         41.8670   -1.6940    1.7490 O.2   410  PHE410     -0.2867
    138  CB        40.7150    0.4660    0.0980 C.3   410  PHE410      0.0534
    139  CG        39.7730    1.6060    0.3640 C.ar  410  PHE410     -0.0203
    140  CD1       39.8060    2.7520   -0.4330 C.ar  410  PHE410     -0.0042
    141  CD2       38.8310    1.5190    1.3830 C.ar  410  PHE410     -0.0042
    142  CE1       38.9020    3.7950   -0.2250 C.ar  410  PHE410     -0.0003
    143  CE2       37.9220    2.5480    1.5980 C.ar  410  PHE410     -0.0003
    144  CZ        37.9630    3.7000    0.7930 C.ar  410  PHE410     -0.0000
@<TRIPOS>BOND
     1    23    22    2
     2    22    21    1
     3    54    53    2
     4    53    52    1
     5    21    20    1
     6    21    24    1
     7    20    12   am
     8    52    51    1
     9    52    55    1
    10    24    25    1
    11    10    11    1
    12    12    13    2
    13    12    11    1
    14   132   133   ar
    15   132   130   ar
    16    55    56    1
    17     1     2    1
    18    11    14    1
    19   133   131   ar
    20   130   127   ar
    21    25    26   ar
    22    25    27   ar
    23    26    28   ar
    24    14    15    1
    25     2     3    1
    26     2     5    1
    27     3     4    2
    28    56    57   ar
    29    56    58   ar
    30    27    30   ar
    31    27    29   ar
    32   131   129   ar
    33   123   122    2
    34    57    59   ar
    35    30    32   ar
    36   127   129   ar
    37   127   125   ar
    38   122   121    1
    39    28    29   ar
    40    58    60   ar
    41    15    17   ar
    42    15    16   ar
    43   121   124    1
    44   121   120    1
    45     5     6    1
    46     6     7    1
    47   129   128   ar
    48    17    19   ar
    49    29    31   ar
    50    34    35    1
    51   124   125    1
    52   125   126   ar
    53   120   113   am
    54    32    33   ar
    55    59    61   ar
    56    37    36    2
    57    16    18   ar
    58    60    61   ar
    59     7     8    2
    60     7     9   am
    61    38    35    1
    62    38    39    1
    63   128   126   ar
    64    19    18   ar
    65    35    36    1
    66    31    33   ar
    67    45    44    2
    68    36    42   am
    69   113   114    2
    70   113   112    1
    71   111   112    1
    72    44    43    1
    73    41    39   am
    74    39    40    2
    75   112   115    1
    76    42    43    1
    77    43    46    1
    78    46    47    1
    79   110   108   ar
    80   110   109   ar
    81   115   116    1
    82   108   106   ar
    83   109   107   ar
    84    49    48   ar
    85    47    48    1
    86   118   117   ar
    87   116   117    1
    88   117   119   ar
    89    95    94   ar
    90    48    50   ar
    91   106   104   ar
    92   106   105   ar
    93   107   104   ar
    94    94    96   ar
    95    94    93    1
    96   104   102   ar
    97   105   103   ar
    98    93    92    1
    99   103   102   ar
   100   102   101    1
   101   140   142   ar
   102   140   139   ar
   103   142   144   ar
   104   134   135    1
   105   138   139    1
   106   138   135    1
   107    73    72    1
   108    92    89    1
   109   139   141   ar
   110    85    87   ar
   111    85    83   ar
   112    87    86   ar
   113   101    98    1
   114   144   143   ar
   115   135   136    1
   116    98    99    1
   117    98    97    1
   118    71    72   ar
   119    71    69   ar
   120    88    89    1
   121   136   137    2
   122    72    70   ar
   123    89    90    1
   124    99   100    2
   125   141   143   ar
   126    86    84   ar
   127    83    82   ar
   128    83    81   ar
   129    82    80   ar
   130    69    67   ar
   131    70    68   ar
   132    90    91    2
   133    84    81   ar
   134    81    79   ar
   135    67    68   ar
   136    67    66    1
   137    80    79   ar
   138    79    78    1
   139    66    63    1
   140    62    63    1
   141    63    64    1
   142    78    75    1
   143    74    75    1
   144    75    76    1
   145    64    65    2
   146    76    77    2
