@<TRIPOS>MOLECULE
tmp/3cmpA00.pdb
 158 152 0 0 0
SMALL
GASTEIGER

@<TRIPOS>ATOM
      1  N         30.5560   86.7740   61.1030 N.3    36  ALA36      -0.1231
      2  CA        31.1570   86.6900   62.4370 C.3    36  ALA36       0.1694
      3  C         32.5510   86.0520   62.3980 C.2    36  ALA36       0.2591
      4  O         33.1080   85.7150   63.4420 O.2    36  ALA36      -0.2718
      5  CB        30.2490   85.9100   63.3720 C.3    36  ALA36       0.0304
      6  N         33.1060   85.8930   61.1980 N.am   37  ILE37      -0.1980
      7  CA        34.4370   85.3070   61.0120 C.3    37  ILE37       0.1595
      8  C         35.4390   86.3970   60.6340 C.2    37  ILE37       0.2287
      9  O         35.1950   87.1700   59.7090 O.2    37  ILE37      -0.2864
     10  CB        34.4400   84.2330   59.9030 C.3    37  ILE37       0.0276
     11  CG1       33.3700   83.1670   60.1650 C.3    37  ILE37       0.0022
     12  CG2       35.8130   83.5850   59.7970 C.3    37  ILE37       0.0022
     13  CD1       33.5650   82.3980   61.4460 C.3    37  ILE37       0.0001
     14  N         39.9720   72.2930   61.5340 N.3    48  TYR48      -0.1241
     15  CA        39.1700   71.3490   62.3060 C.3    48  TYR48       0.1605
     16  C         38.3120   70.4820   61.3840 C.2    48  TYR48       0.2264
     17  O         38.0860   70.8240   60.2220 O.2    48  TYR48      -0.2867
     18  CB        38.3090   72.0820   63.3400 C.3    48  TYR48       0.0534
     19  CG        37.2320   72.9860   62.7750 C.ar   48  TYR48      -0.0201
     20  CD1       37.5020   74.3150   62.4650 C.ar   48  TYR48      -0.0009
     21  CD2       35.9370   72.5170   62.5800 C.ar   48  TYR48      -0.0009
     22  CE1       36.5120   75.1520   61.9590 C.ar   48  TYR48       0.0417
     23  CE2       34.9410   73.3410   62.0760 C.ar   48  TYR48       0.0417
     24  CZ        35.2330   74.6580   61.7670 C.ar   48  TYR48       0.1957
     25  OH        34.2500   75.4800   61.2650 O.3    48  TYR48      -0.2866
     26  N         31.7630   68.0020   65.3720 N.3    64  SER64      -0.1217
     27  CA        32.9640   68.7720   65.0490 C.3    64  SER64       0.1889
     28  C         34.0590   68.4770   66.0670 C.2    64  SER64       0.2288
     29  O         33.7900   68.3540   67.2610 O.2    64  SER64      -0.2866
     30  CB        32.6660   70.2720   65.0100 C.3    64  SER64       0.2089
     31  OG        32.0940   70.6420   63.7670 O.3    64  SER64      -0.2183
     32  N         37.8890   69.9470   67.0940 N.3    66  LEU66      -0.1245
     33  CA        38.9050   70.9840   66.9220 C.3    66  LEU66       0.1561
     34  C         39.9690   70.9110   68.0120 C.2    66  LEU66       0.2260
     35  O         39.7200   70.4090   69.1060 O.2    66  LEU66      -0.2867
     36  CB        38.2700   72.3790   66.8990 C.3    66  LEU66       0.0270
     37  CG        37.1300   72.6760   67.8750 C.3    66  LEU66       0.0019
     38  CD1       37.1290   74.1540   68.2500 C.3    66  LEU66       0.0001
     39  CD2       35.7800   72.2660   67.2930 C.3    66  LEU66       0.0001
     40  N         32.2510   68.8120   69.5700 N.3    75  TRP75      -0.1241
     41  CA        31.0630   69.6560   69.4580 C.3    75  TRP75       0.1605
     42  C         29.9910   68.9360   68.6320 C.2    75  TRP75       0.2264
     43  O         30.0550   68.9080   67.4000 O.2    75  TRP75      -0.2867
     44  CB        31.4850   70.9990   68.8400 C.3    75  TRP75       0.0550
     45  CG        30.4010   71.8510   68.2410 C.ar   75  TRP75       0.0003
     46  CD1       30.4490   72.4960   67.0350 C.ar   75  TRP75       0.0946
     47  CD2       29.1250   72.1670   68.8120 C.ar   75  TRP75       0.0152
     48  NE1       29.2820   73.1880   66.8190 N.ar   75  TRP75      -0.2442
     49  CE2       28.4540   73.0050   67.8930 C.ar   75  TRP75       0.0810
     50  CE3       28.4810   71.8210   70.0070 C.ar   75  TRP75       0.0012
     51  CZ2       27.1740   73.4990   68.1290 C.ar   75  TRP75       0.0191
     52  CZ3       27.2010   72.3170   70.2410 C.ar   75  TRP75       0.0001
     53  CH2       26.5640   73.1460   69.3020 C.ar   75  TRP75       0.0015
     54  N         25.9580   67.8990   67.4570 N.3    77  ARG77      -0.1245
     55  CA        24.6370   68.4610   67.1650 C.3    77  ARG77       0.1563
     56  C         23.9500   67.6550   66.0670 C.2    77  ARG77       0.2260
     57  O         24.5880   66.8400   65.4010 O.2    77  ARG77      -0.2867
     58  CB        24.7530   69.9290   66.7440 C.3    77  ARG77       0.0307
     59  CG        25.5770   70.1640   65.4790 C.3    77  ARG77       0.0489
     60  CD        26.4150   71.4270   65.6060 C.3    77  ARG77       0.2205
     61  NE        27.0970   71.7960   64.3650 N.pl3  77  ARG77      -0.0865
     62  CZ        28.2530   71.2830   63.9400 C.cat  77  ARG77       0.5346
     63  NH1       28.8900   70.3490   64.6430 N.pl3  77  ARG77       0.1354
     64  NH2       28.7760   71.7060   62.7940 N.pl3  77  ARG77       0.1354
     65  N         18.3750   72.6970   62.6710 N.3    90  LEU90      -0.1245
     66  CA        19.0280   72.1800   63.8740 C.3    90  LEU90       0.1561
     67  C         18.0210   71.4970   64.7910 C.2    90  LEU90       0.2260
     68  O         17.0040   72.0890   65.1530 O.2    90  LEU90      -0.2867
     69  CB        19.7260   73.3100   64.6340 C.3    90  LEU90       0.0270
     70  CG        20.6790   72.9020   65.7640 C.3    90  LEU90       0.0019
     71  CD1       21.8750   72.1260   65.2200 C.3    90  LEU90       0.0001
     72  CD2       21.1400   74.1290   66.5380 C.3    90  LEU90       0.0001
     73  N         19.6330   75.4410   73.1800 N.3    96  TYR96      -0.1241
     74  CA        20.6490   76.4730   72.9290 C.3    96  TYR96       0.1605
     75  C         20.1260   77.8590   73.3270 C.2    96  TYR96       0.2264
     76  O         19.2780   78.4210   72.6310 O.2    96  TYR96      -0.2867
     77  CB        21.0570   76.4700   71.4550 C.3    96  TYR96       0.0534
     78  CG        21.5110   75.1170   70.9630 C.ar   96  TYR96      -0.0201
     79  CD1       20.6310   74.2650   70.3050 C.ar   96  TYR96      -0.0009
     80  CD2       22.8160   74.6840   71.1640 C.ar   96  TYR96      -0.0009
     81  CE1       21.0390   73.0180   69.8540 C.ar   96  TYR96       0.0417
     82  CE2       23.2350   73.4390   70.7160 C.ar   96  TYR96       0.0417
     83  CZ        22.3410   72.6100   70.0630 C.ar   96  TYR96       0.1957
     84  OH        22.7450   71.3730   69.6160 O.3    96  TYR96      -0.2866
     85  N         19.1420   80.9350   70.7510 N.3    99  LEU99      -0.1245
     86  CA        18.9980   80.4910   69.3620 C.3    99  LEU99       0.1561
     87  C         17.5290   80.2680   69.0100 C.2    99  LEU99       0.2260
     88  O         16.8850   79.3650   69.5450 O.2    99  LEU99      -0.2867
     89  CB        19.7950   79.2060   69.1190 C.3    99  LEU99       0.0270
     90  CG        19.9730   78.7800   67.6570 C.3    99  LEU99       0.0019
     91  CD1       20.9660   79.6840   66.9450 C.3    99  LEU99       0.0001
     92  CD2       20.4270   77.3330   67.5730 C.3    99  LEU99       0.0001
     93  N         17.9250   78.2890   62.8280 N.3   102  TYR102     -0.1241
     94  CA        19.1510   77.6950   62.2950 C.3   102  TYR102      0.1605
     95  C         18.8860   76.9880   60.9680 C.2   102  TYR102      0.2264
     96  O         18.0760   76.0650   60.9030 O.2   102  TYR102     -0.2867
     97  CB        19.7470   76.7040   63.2960 C.3   102  TYR102      0.0534
     98  CG        21.1980   76.3570   63.0310 C.ar  102  TYR102     -0.0201
     99  CD1       21.5410   75.2870   62.2080 C.ar  102  TYR102     -0.0009
    100  CD2       22.2270   77.0970   63.6100 C.ar  102  TYR102     -0.0009
    101  CE1       22.8660   74.9640   61.9680 C.ar  102  TYR102      0.0417
    102  CE2       23.5560   76.7810   63.3730 C.ar  102  TYR102      0.0417
    103  CZ        23.8680   75.7130   62.5500 C.ar  102  TYR102      0.1957
    104  OH        25.1790   75.3900   62.3110 O.3   102  TYR102     -0.2866
    105  N         25.5090   78.0910   56.0230 N.3   119  PHE119     -0.1241
    106  CA        24.8160   78.0660   57.3140 C.3   119  PHE119      0.1605
    107  C         24.2570   79.4490   57.6360 C.2   119  PHE119      0.2264
    108  O         24.8060   80.4640   57.2040 O.2   119  PHE119     -0.2867
    109  CB        25.7600   77.6390   58.4390 C.3   119  PHE119      0.0534
    110  CG        26.4600   76.3330   58.1920 C.ar  119  PHE119     -0.0203
    111  CD1       25.9970   75.1590   58.7710 C.ar  119  PHE119     -0.0042
    112  CD2       27.5960   76.2810   57.3970 C.ar  119  PHE119     -0.0042
    113  CE1       26.6490   73.9550   58.5530 C.ar  119  PHE119     -0.0003
    114  CE2       28.2500   75.0800   57.1720 C.ar  119  PHE119     -0.0003
    115  CZ        27.7760   73.9160   57.7520 C.ar  119  PHE119     -0.0000
    116  N         22.2370   81.3140   61.1670 N.3   121  ALA121     -0.1245
    117  CA        21.7190   81.1590   62.5260 C.3   121  ALA121      0.1562
    118  C         21.2880   82.4980   63.1250 C.2   121  ALA121      0.2260
    119  O         22.0030   83.4950   63.0130 O.2   121  ALA121     -0.2867
    120  CB        22.7760   80.5110   63.4080 C.3   121  ALA121      0.0290
    121  N         20.7590   84.0340   66.5900 N.3   123  SER123     -0.1217
    122  CA        21.0020   83.9260   68.0220 C.3   123  SER123      0.1889
    123  C         20.9920   85.3200   68.6240 C.2   123  SER123      0.2288
    124  O         21.6370   86.2300   68.1000 O.2   123  SER123     -0.2866
    125  CB        22.3530   83.2660   68.2900 C.3   123  SER123      0.2089
    126  OG        22.8220   83.5770   69.5920 O.3   123  SER123     -0.2183
    127  N         23.3960   85.6940   62.0380 N.3   128  TYR128     -0.1227
    128  CA        24.7240   85.2480   61.6090 C.3   128  TYR128      0.1736
    129  C         24.6060   84.3140   60.4100 C.2   128  TYR128      0.2595
    130  O         23.6470   83.5520   60.3050 O.2   128  TYR128     -0.2718
    131  CB        25.4420   84.5070   62.7370 C.3   128  TYR128      0.0548
    132  CG        25.6770   85.3240   63.9840 C.ar  128  TYR128     -0.0200
    133  CD1       24.8730   85.1600   65.1090 C.ar  128  TYR128     -0.0009
    134  CD2       26.7120   86.2530   64.0460 C.ar  128  TYR128     -0.0009
    135  CE1       25.0880   85.9030   66.2580 C.ar  128  TYR128      0.0417
    136  CE2       26.9350   87.0030   65.1930 C.ar  128  TYR128      0.0417
    137  CZ        26.1170   86.8230   66.2940 C.ar  128  TYR128      0.1957
    138  OH        26.3330   87.5600   67.4340 O.3   128  TYR128     -0.2866
    139  N         25.5840   84.3790   59.5120 N.am  129  PHE129     -0.1962
    140  CA        25.6750   83.4310   58.4040 C.3   129  PHE129      0.1771
    141  C         27.1300   83.1090   58.0930 C.2   129  PHE129      0.2619
    142  O         28.0130   83.9420   58.3030 O.2   129  PHE129     -0.2715
    143  CB        24.9510   83.9600   57.1580 C.3   129  PHE129      0.0574
    144  CG        25.7400   84.9680   56.3600 C.ar  129  PHE129     -0.0200
    145  CD1       25.7850   86.2990   56.7470 C.ar  129  PHE129     -0.0042
    146  CD2       26.4180   84.5840   55.2080 C.ar  129  PHE129     -0.0042
    147  CE1       26.5030   87.2330   56.0070 C.ar  129  PHE129     -0.0003
    148  CE2       27.1380   85.5090   54.4640 C.ar  129  PHE129     -0.0003
    149  CZ        27.1810   86.8370   54.8650 C.ar  129  PHE129     -0.0000
    150  N         27.3690   81.8950   57.6050 N.am  130  LYS130     -0.1977
    151  CA        28.7110   81.4780   57.2030 C.3   130  LYS130      0.1596
    152  C         28.6800   80.4650   56.0620 C.2   130  LYS130      0.2287
    153  O         27.6800   79.7760   55.8520 O.2   130  LYS130     -0.2864
    154  CB        29.4900   80.9030   58.3930 C.3   130  LYS130      0.0298
    155  CG        29.0390   79.5190   58.8600 C.3   130  LYS130      0.0038
    156  CD        29.9820   78.9490   59.9100 C.3   130  LYS130      0.0206
    157  CE        29.6170   77.5120   60.2650 C.3   130  LYS130      0.1093
    158  NZ        30.5380   76.9290   61.2830 N.3   130  LYS130     -0.1314
@<TRIPOS>BOND
     1   148   149   ar
     2   148   146   ar
     3   149   147   ar
     4   146   144   ar
     5   153   152    2
     6   147   145   ar
     7   105   106    1
     8   152   151    1
     9   144   145   ar
    10   144   143    1
    11   143   140    1
    12   114   112   ar
    13   114   115   ar
    14   151   150    1
    15   151   154    1
    16   108   107    2
    17   106   107    1
    18   106   109    1
    19   112   110   ar
    20   150   141   am
    21   115   113   ar
    22   141   142    2
    23   141   140    1
    24   110   109    1
    25   110   111   ar
    26   154   155    1
    27   140   139    1
    28   113   111   ar
    29   155   156    1
    30   139   129   am
    31     9     8    2
    32    12    10    1
    33    10    11    1
    34    10     7    1
    35   156   157    1
    36    11    13    1
    37    17    16    2
    38   157   158    1
    39   130   129    2
    40   129   128    1
    41     8     7    1
    42    96    95    2
    43    95    94    1
    44     7     6    1
    45     1     2    1
    46   116   117    1
    47     6     3   am
    48    25    24    1
    49    16    15    1
    50    14    15    1
    51   128   127    1
    52   128   131    1
    53    24    22   ar
    54    24    23   ar
    55    22    20   ar
    56   101    99   ar
    57   101   103   ar
    58    23    21   ar
    59    99    98   ar
    60    94    93    1
    61    94    97    1
    62    15    18    1
    63   104   103    1
    64     3     2    1
    65     3     4    2
    66     2     5    1
    67    20    19   ar
    68   117   118    1
    69   117   120    1
    70   103   102   ar
    71    21    19   ar
    72    65    66    1
    73   131   132    1
    74    19    18    1
    75    64    62    1
    76   119   118    2
    77    98    97    1
    78    98   100   ar
    79   102   100   ar
    80    31    30    1
    81    66    69    1
    82    66    67    1
    83    62    61    2
    84    62    63    1
    85   132   134   ar
    86   132   133   ar
    87   134   136   ar
    88    61    60    1
    89    69    70    1
    90    67    68    2
    91    30    27    1
    92    27    26    1
    93    27    28    1
    94   133   135   ar
    95   136   137   ar
    96    71    70    1
    97    57    56    2
    98    59    60    1
    99    59    58    1
   100    70    72    1
   101    56    55    1
   102    28    29    2
   103   135   137   ar
   104   137   138    1
   105   121   122    1
   106    58    55    1
   107    48    46   ar
   108    48    49   ar
   109    36    33    1
   110    36    37    1
   111    33    32    1
   112    33    34    1
   113    91    90    1
   114    46    45   ar
   115    55    54    1
   116    39    37    1
   117    43    42    2
   118    92    90    1
   119    90    89    1
   120    37    38    1
   121    49    51   ar
   122    49    47   ar
   123    34    35    2
   124   122   125    1
   125   122   123    1
   126   124   123    2
   127    51    53   ar
   128    45    47   ar
   129    45    44    1
   130   125   126    1
   131    42    41    1
   132    47    50   ar
   133    44    41    1
   134    87    86    1
   135    87    88    2
   136    89    86    1
   137    53    52   ar
   138    86    85    1
   139    41    40    1
   140    84    83    1
   141    81    83   ar
   142    81    79   ar
   143    50    52   ar
   144    83    82   ar
   145    79    78   ar
   146    82    80   ar
   147    78    80   ar
   148    78    77    1
   149    77    74    1
   150    76    75    2
   151    74    73    1
   152    74    75    1
