@<TRIPOS>MOLECULE
tmp/3cmqA00.pdb
 236 225 0 0 0
SMALL
GASTEIGER

@<TRIPOS>ATOM
      1  N          6.1460   23.4280   17.4780 N.3   109  HIS109     -0.1241
      2  CA         5.1290   22.4840   17.0240 C.3   109  HIS109      0.1621
      3  C          4.7830   21.4920   18.1270 C.2   109  HIS109      0.2264
      4  O          5.5590   21.3050   19.0680 O.2   109  HIS109     -0.2867
      5  CB         5.5600   21.7540   15.7360 C.3   109  HIS109      0.0745
      6  CG         6.8750   21.0350   15.8210 C.ar  109  HIS109      0.0817
      7  ND1        7.7070   21.1020   16.9180 N.ar  109  HIS109     -0.2268
      8  CD2        7.5070   20.2450   14.9200 C.ar  109  HIS109      0.1154
      9  CE1        8.7930   20.3840   16.6880 C.ar  109  HIS109      0.1986
     10  NE2        8.6960   19.8550   15.4830 N.ar  109  HIS109     -0.2212
     11  N          4.7970   18.4550   17.9420 N.3   111  SER111     -0.1217
     12  CA         5.6190   17.2470   17.7840 C.3   111  SER111      0.1889
     13  C          6.6650   17.2000   18.9030 C.2   111  SER111      0.2288
     14  O          7.3100   16.1730   19.1380 O.2   111  SER111     -0.2866
     15  CB         6.3400   17.2550   16.4280 C.3   111  SER111      0.2089
     16  OG         5.4210   17.1780   15.3600 O.3   111  SER111     -0.2183
     17  N          6.0160   14.3030   21.2930 N.3   114  GLN114     -0.1245
     18  CA         5.9640   12.9270   20.8160 C.3   114  GLN114      0.1566
     19  C          6.8070   11.9750   21.6550 C.2   114  GLN114      0.2260
     20  O          6.3050   10.9900   22.1810 O.2   114  GLN114     -0.2867
     21  CB         6.4250   12.8460   19.3560 C.3   114  GLN114      0.0367
     22  CG         5.3410   13.1550   18.3250 C.3   114  GLN114      0.0905
     23  CD         5.8170   12.9080   16.9060 C.2   114  GLN114      0.2608
     24  OE1        6.6540   12.0400   16.6690 O.2   114  GLN114     -0.2717
     25  NE2        5.2750   13.6620   15.9530 N.am  114  GLN114     -0.0878
     26  N          6.0230   30.5760   16.5230 N.3   133  ARG133     -0.1245
     27  CA         7.0240   30.7250   15.4670 C.3   133  ARG133      0.1563
     28  C          7.1740   32.1710   15.0240 C.2   133  ARG133      0.2260
     29  O          6.1960   32.9200   14.9600 O.2   133  ARG133     -0.2867
     30  CB         6.6650   29.8790   14.2420 C.3   133  ARG133      0.0307
     31  CG         6.6120   28.3950   14.5120 C.3   133  ARG133      0.0489
     32  CD         6.3430   27.6270   13.2400 C.3   133  ARG133      0.2205
     33  NE         5.9410   26.2600   13.5400 N.pl3 133  ARG133     -0.0865
     34  CZ         5.5120   25.3910   12.6300 C.cat 133  ARG133      0.5346
     35  NH1        5.4370   25.7450   11.3510 N.pl3 133  ARG133      0.1354
     36  NH2        5.1300   24.1800   13.0040 N.pl3 133  ARG133      0.1354
     37  N          7.5870   34.5670   12.2000 N.3   135  ASP135     -0.1239
     38  CA         7.3560   34.5220   10.7660 C.3   135  ASP135      0.1674
     39  C          6.8530   35.8570   10.2300 C.2   135  ASP135      0.2266
     40  O          6.7190   36.8390   10.9690 O.2   135  ASP135     -0.2867
     41  CB         6.3280   33.4330   10.4530 C.3   135  ASP135      0.1410
     42  CG         6.5680   32.7620    9.1160 C.2   135  ASP135      0.3668
     43  OD1        7.0930   33.4080    8.1820 O.co2 135  ASP135     -0.2456
     44  OD2        6.2120   31.5760    8.9980 O.co2 135  ASP135     -0.2456
     45  N         -2.6050   35.1370    6.9940 N.3   140  GLN140     -0.1231
     46  CA        -2.5040   33.6990    7.2220 C.3   140  GLN140      0.1698
     47  C         -1.3810   33.3170    8.1750 C.2   140  GLN140      0.2592
     48  O         -1.1170   32.1340    8.3880 O.2   140  GLN140     -0.2718
     49  CB        -2.3070   32.9590    5.8990 C.3   140  GLN140      0.0381
     50  CG        -3.3820   33.2370    4.8710 C.3   140  GLN140      0.0905
     51  CD        -3.2900   32.3060    3.6810 C.2   140  GLN140      0.2608
     52  OE1       -3.6830   31.1420    3.7590 O.2   140  GLN140     -0.2717
     53  NE2       -2.7550   32.8100    2.5730 N.am  140  GLN140     -0.0878
     54  N         -0.7190   34.3120    8.7500 N.am  141  HIS141     -0.1962
     55  CA         0.3720   34.0450    9.6770 C.3   141  HIS141      0.1787
     56  C          0.2210   34.8410   10.9630 C.2   141  HIS141      0.2620
     57  O         -0.1630   36.0140   10.9400 O.2   141  HIS141     -0.2715
     58  CB         1.7120   34.3790    9.0260 C.3   141  HIS141      0.0785
     59  CG         2.0450   33.5110    7.8550 C.ar  141  HIS141      0.0821
     60  ND1        2.7760   32.3480    7.9740 N.ar  141  HIS141     -0.2267
     61  CD2        1.7400   33.6300    6.5420 C.ar  141  HIS141      0.1154
     62  CE1        2.9090   31.7910    6.7840 C.ar  141  HIS141      0.1986
     63  NE2        2.2900   32.5490    5.8980 N.ar  141  HIS141     -0.2212
     64  N          0.5280   34.1860   12.0780 N.am  142  TYR142     -0.1974
     65  CA         0.4600   34.7990   13.3950 C.3   142  TYR142      0.1639
     66  C          1.5640   34.1500   14.2380 C.2   142  TYR142      0.2290
     67  O          1.8410   32.9670   14.0910 O.2   142  TYR142     -0.2864
     68  CB        -0.9200   34.5550   14.0180 C.3   142  TYR142      0.0560
     69  CG        -1.3260   35.6270   14.9990 C.ar  142  TYR142     -0.0198
     70  CD1       -1.5400   36.9420   14.5750 C.ar  142  TYR142     -0.0009
     71  CD2       -1.4470   35.3460   16.3560 C.ar  142  TYR142     -0.0009
     72  CE1       -1.8580   37.9540   15.4860 C.ar  142  TYR142      0.0417
     73  CE2       -1.7640   36.3510   17.2760 C.ar  142  TYR142      0.0417
     74  CZ        -1.9650   37.6490   16.8350 C.ar  142  TYR142      0.1957
     75  OH        -2.2560   38.6350   17.7470 O.3   142  TYR142     -0.2866
     76  N         -0.1430   30.0730   17.0740 N.3   145  PHE145     -0.1241
     77  CA        -1.2470   29.3590   16.4670 C.3   145  PHE145      0.1605
     78  C         -1.4130   28.0340   17.1960 C.2   145  PHE145      0.2264
     79  O         -0.7850   27.8090   18.2310 O.2   145  PHE145     -0.2867
     80  CB        -1.0780   29.2030   14.9440 C.3   145  PHE145      0.0534
     81  CG         0.1750   28.5060   14.5140 C.ar  145  PHE145     -0.0203
     82  CD1        0.1500   27.1580   14.1770 C.ar  145  PHE145     -0.0042
     83  CD2        1.3660   29.2140   14.3710 C.ar  145  PHE145     -0.0042
     84  CE1        1.2960   26.5150   13.6920 C.ar  145  PHE145     -0.0003
     85  CE2        2.5210   28.5870   13.8900 C.ar  145  PHE145     -0.0003
     86  CZ         2.4850   27.2320   13.5480 C.ar  145  PHE145     -0.0000
     87  N         -1.9390   23.6160   17.0320 N.3   147  GLN147     -0.1245
     88  CA        -1.8500   22.3840   16.2840 C.3   147  GLN147      0.1566
     89  C         -2.4520   21.2520   17.0850 C.2   147  GLN147      0.2260
     90  O         -2.6240   21.3580   18.3000 O.2   147  GLN147     -0.2867
     91  CB        -0.3950   22.0290   16.0000 C.3   147  GLN147      0.0367
     92  CG         0.3520   22.9920   15.1270 C.3   147  GLN147      0.0905
     93  CD         1.6940   22.4410   14.7280 C.2   147  GLN147      0.2608
     94  OE1        2.4930   22.0390   15.5810 O.2   147  GLN147     -0.2717
     95  NE2        1.9560   22.4120   13.4280 N.am  147  GLN147     -0.0878
     96  N         -1.7220   17.2090   17.4170 N.3   149  GLU149     -0.1245
     97  CA        -0.8530   16.0840   17.1040 C.3   149  GLU149      0.1567
     98  C         -1.5570   14.7600   17.3590 C.2   149  GLU149      0.2260
     99  O         -2.3620   14.6440   18.2850 O.2   149  GLU149     -0.2867
    100  CB         0.3840   16.1280   18.0030 C.3   149  GLU149      0.0388
    101  CG         1.5790   15.3780   17.4730 C.3   149  GLU149      0.1160
    102  CD         2.3920   16.2180   16.5200 C.2   149  GLU149      0.3649
    103  OE1        1.9580   17.3570   16.2210 O.co2 149  GLU149     -0.2457
    104  OE2        3.4610   15.7460   16.0760 O.co2 149  GLU149     -0.2457
    105  N         10.1300   15.3040    6.2800 N.3   222  PHE222     -0.1241
    106  CA        10.2190   15.7220    7.6770 C.3   222  PHE222      0.1605
    107  C         11.2950   14.8000    8.2410 C.2   222  PHE222      0.2264
    108  O         11.3630   13.6320    7.8700 O.2   222  PHE222     -0.2867
    109  CB         8.9120   15.4660    8.4400 C.3   222  PHE222      0.0534
    110  CG         7.7610   16.3050    7.9880 C.ar  222  PHE222     -0.0203
    111  CD1        7.7410   17.6790    8.2310 C.ar  222  PHE222     -0.0042
    112  CD2        6.6900   15.7300    7.3220 C.ar  222  PHE222     -0.0042
    113  CE1        6.6670   18.4640    7.8130 C.ar  222  PHE222     -0.0003
    114  CE2        5.6160   16.5040    6.9040 C.ar  222  PHE222     -0.0003
    115  CZ         5.6070   17.8740    7.1500 C.ar  222  PHE222     -0.0000
    116  N         11.4640   13.5770   11.1450 N.3   224  PHE224     -0.1227
    117  CA        10.8720   12.6210   12.0670 C.3   224  PHE224      0.1736
    118  C          9.8920   11.5940   11.5120 C.2   224  PHE224      0.2596
    119  O          9.3690   10.7740   12.2650 O.2   224  PHE224     -0.2718
    120  CB        10.2470   13.3710   13.2600 C.3   224  PHE224      0.0547
    121  CG         9.5890   14.6850   12.8960 C.ar  224  PHE224     -0.0202
    122  CD1        8.2100   14.7700   12.7480 C.ar  224  PHE224     -0.0042
    123  CD2       10.3550   15.8350   12.7040 C.ar  224  PHE224     -0.0042
    124  CE1        7.5910   15.9940   12.4120 C.ar  224  PHE224     -0.0003
    125  CE2        9.7550   17.0610   12.3660 C.ar  224  PHE224     -0.0003
    126  CZ         8.3660   17.1410   12.2200 C.ar  224  PHE224     -0.0000
    127  N          9.6390   11.6350   10.2080 N.am  225  THR225     -0.1953
    128  CA         8.7550   10.6590    9.5760 C.3   225  THR225      0.1897
    129  C          9.2880   10.3170    8.1980 C.2   225  THR225      0.2313
    130  O         10.0630   11.0810    7.6240 O.2   225  THR225     -0.2863
    131  CB         7.3110   11.1790    9.3860 C.3   225  THR225      0.1794
    132  OG1        7.3380   12.4450    8.7140 O.3   225  THR225     -0.2208
    133  CG2        6.6050   11.3100   10.7200 C.3   225  THR225      0.0378
    134  N          1.7270   15.6010    3.0170 N.3   230  GLU230     -0.1245
    135  CA         1.0010   16.7850    3.4020 C.3   230  GLU230      0.1567
    136  C         -0.3540   16.5570    2.7520 C.2   230  GLU230      0.2260
    137  O         -0.4360   16.0320    1.6430 O.2   230  GLU230     -0.2867
    138  CB         1.6480   18.0480    2.8410 C.3   230  GLU230      0.0388
    139  CG         2.7010   18.6410    3.7490 C.3   230  GLU230      0.1160
    140  CD         3.5750   19.6510    3.0370 C.2   230  GLU230      0.3649
    141  OE1        4.4070   20.2980    3.7070 O.co2 230  GLU230     -0.2457
    142  OE2        3.4370   19.7910    1.8040 O.co2 230  GLU230     -0.2457
    143  N         -2.3780   23.4600    2.0200 N.3   241  GLU241     -0.1231
    144  CA        -1.8830   22.4230    2.9170 C.3   241  GLU241      0.1699
    145  C         -2.4640   22.6420    4.3090 C.2   241  GLU241      0.2592
    146  O         -2.4220   23.7510    4.8410 O.2   241  GLU241     -0.2718
    147  CB        -0.3560   22.4590    2.9930 C.3   241  GLU241      0.0402
    148  CG         0.2270   23.8170    3.3640 C.3   241  GLU241      0.1161
    149  CD         0.5040   24.7050    2.1570 C.2   241  GLU241      0.3649
    150  OE1       -0.4500   25.0570    1.4290 O.co2 241  GLU241     -0.2457
    151  OE2        1.6870   25.0510    1.9330 O.co2 241  GLU241     -0.2457
    152  N         -3.0010   21.5840    4.9050 N.am  242  VAL242     -0.1966
    153  CA        -3.5920   21.7060    6.2260 C.3   242  VAL242      0.1727
    154  C         -2.9550   20.8040    7.2860 C.2   242  VAL242      0.2616
    155  O         -3.2540   20.9330    8.4730 O.2   242  VAL242     -0.2715
    156  CB        -5.1000   21.4290    6.1670 C.3   242  VAL242      0.0290
    157  CG1       -5.7440   22.3170    5.1100 C.3   242  VAL242      0.0023
    158  CG2       -5.3520   19.9600    5.8570 C.3   242  VAL242      0.0023
    159  N         -2.0740   19.8990    6.8710 N.am  243  LEU243     -0.1963
    160  CA        -1.4250   19.0110    7.8340 C.3   243  LEU243      0.1728
    161  C         -0.2200   18.2900    7.2690 C.2   243  LEU243      0.2617
    162  O         -0.0770   18.1320    6.0560 O.2   243  LEU243     -0.2715
    163  CB        -2.4180   17.9620    8.3600 C.3   243  LEU243      0.0311
    164  CG        -2.9100   16.8870    7.3760 C.3   243  LEU243      0.0022
    165  CD1       -1.8930   15.7380    7.2900 C.3   243  LEU243      0.0001
    166  CD2       -4.2610   16.3450    7.8440 C.3   243  LEU243      0.0001
    167  N          0.6450   17.8620    8.1760 N.am  244  GLY244     -0.1940
    168  CA         1.8220   17.1060    7.8070 C.3   244  GLY244      0.2014
    169  C          1.6590   15.7610    8.4990 C.2   244  GLY244      0.2639
    170  O          0.9910   15.6770    9.5330 O.2   244  GLY244     -0.2714
    171  N          2.2450   14.7080    7.9420 N.am  245  CYS245     -0.1967
    172  CA         2.1410   13.3850    8.5520 C.3   245  CYS245      0.1712
    173  C          3.1220   12.4030    7.9150 C.2   245  CYS245      0.2296
    174  O          3.8610   12.7520    6.9950 O.2   245  CYS245     -0.2864
    175  CB         0.7110   12.8470    8.4100 C.3   245  CYS245      0.0983
    176  SG         0.1870   12.5190    6.6920 S.3   245  CYS245     -0.0798
    177  N          2.0920    9.3490   12.6070 N.3   265  ALA265     -0.1231
    178  CA         1.8290   10.5660   13.3510 C.3   265  ALA265      0.1694
    179  C          1.4120   11.6590   12.3790 C.2   265  ALA265      0.2592
    180  O          1.7150   11.5970   11.1920 O.2   265  ALA265     -0.2718
    181  CB         3.0750   10.9990   14.1100 C.3   265  ALA265      0.0304
    182  N          0.6880   12.6470   12.8840 N.am  266  PHE266     -0.1962
    183  CA         0.2890   13.7680   12.0640 C.3   266  PHE266      0.1771
    184  C          0.1180   14.9920   12.9360 C.2   266  PHE266      0.2620
    185  O         -0.0460   14.8900   14.1580 O.2   266  PHE266     -0.2715
    186  CB        -0.9810   13.4590   11.2330 C.3   266  PHE266      0.0574
    187  CG        -2.2520   13.3030   12.0270 C.ar  266  PHE266     -0.0200
    188  CD1       -2.8560   14.4000   12.6450 C.ar  266  PHE266     -0.0042
    189  CD2       -2.9040   12.0690   12.0680 C.ar  266  PHE266     -0.0042
    190  CE1       -4.0860   14.2730   13.2790 C.ar  266  PHE266     -0.0003
    191  CE2       -4.1460   11.9280   12.7030 C.ar  266  PHE266     -0.0003
    192  CZ        -4.7390   13.0330   13.3070 C.ar  266  PHE266     -0.0000
    193  N          0.2100   16.1500   12.3050 N.am  267  GLY267     -0.1954
    194  CA         0.0580   17.3990   13.0160 C.3   267  GLY267      0.1869
    195  C         -0.7590   18.3080   12.1330 C.2   267  GLY267      0.2309
    196  O         -0.3390   18.6520   11.0350 O.2   267  GLY267     -0.2863
    197  N         -2.9540   21.9230   11.4340 N.3   269  GLY269     -0.1225
    198  CA        -3.0510   23.3170   11.8270 C.3   269  GLY269      0.1811
    199  C         -4.5090   23.6200   12.0950 C.2   269  GLY269      0.2280
    200  O         -5.3310   23.5410   11.1850 O.2   269  GLY269     -0.2866
    201  N         -5.9670   26.6040   13.0460 N.3   271  GLU271     -0.1231
    202  CA        -6.4040   27.8510   12.4130 C.3   271  GLU271      0.1699
    203  C         -6.6280   27.6230   10.9140 C.2   271  GLU271      0.2592
    204  O         -7.6550   28.0080   10.3620 O.2   271  GLU271     -0.2718
    205  CB        -5.3760   28.9720   12.6260 C.3   271  GLU271      0.0402
    206  CG        -5.4160   29.6090   14.0270 C.3   271  GLU271      0.1161
    207  CD        -4.5350   28.8890   15.0340 C.2   271  GLU271      0.3649
    208  OE1       -4.1200   27.7450   14.7590 O.co2 271  GLU271     -0.2457
    209  OE2       -4.2580   29.4650   16.1060 O.co2 271  GLU271     -0.2457
    210  N         -5.6600   26.9830   10.2680 N.am  272  ARG272     -0.1980
    211  CA        -5.7380   26.6780    8.8470 C.3   272  ARG272      0.1597
    212  C         -7.0330   25.9100    8.5480 C.2   272  ARG272      0.2287
    213  O         -7.7820   26.2450    7.6260 O.2   272  ARG272     -0.2864
    214  CB        -4.5300   25.8280    8.4560 C.3   272  ARG272      0.0334
    215  CG        -4.3970   25.5530    6.9830 C.3   272  ARG272      0.0492
    216  CD        -4.0470   26.8140    6.2270 C.3   272  ARG272      0.2205
    217  NE        -3.5550   26.5120    4.8890 N.pl3 272  ARG272     -0.0865
    218  CZ        -2.9900   27.4060    4.0900 C.cat 272  ARG272      0.5346
    219  NH1       -2.8500   28.6630    4.4940 N.pl3 272  ARG272      0.1354
    220  NH2       -2.5540   27.0430    2.8920 N.pl3 272  ARG272      0.1354
    221  N        -10.2100   28.1660    9.3350 N.3   275  MET275     -0.1245
    222  CA       -10.4270   29.2170    8.3490 C.3   275  MET275      0.1570
    223  C        -11.0520   28.6460    7.0880 C.2   275  MET275      0.2261
    224  O        -11.7490   29.3490    6.3540 O.2   275  MET275     -0.2867
    225  CB        -9.1110   29.9290    8.0260 C.3   275  MET275      0.0387
    226  CG        -8.6410   30.8360    9.1570 C.3   275  MET275      0.0595
    227  SD        -6.9770   31.4950    8.9540 S.3   275  MET275     -0.1393
    228  CE        -7.2630   32.7750    7.7320 C.3   275  MET275      0.0692
    229  N         -6.6330   35.4260   10.2340 N.3   283  ILE283     -0.1245
    230  CA        -6.2280   34.7470   11.4570 C.3   283  ILE283      0.1561
    231  C         -6.3440   35.6110   12.7270 C.2   283  ILE283      0.2260
    232  O         -6.5310   35.0830   13.8270 O.2   283  ILE283     -0.2867
    233  CB        -4.7820   34.1920   11.3060 C.3   283  ILE283      0.0252
    234  CG1       -4.4980   33.1490   12.3880 C.3   283  ILE283      0.0019
    235  CG2       -3.7720   35.3240   11.3740 C.3   283  ILE283      0.0019
    236  CD1       -3.2140   32.3620   12.1490 C.3   283  ILE283      0.0001
@<TRIPOS>BOND
     1   150   149   ar
     2   137   136    2
     3   142   140   ar
     4   151   149   ar
     5   143   144    1
     6   149   148    1
     7    53    51   am
     8   136   135    1
     9   138   135    1
    10   138   139    1
    11   220   218    1
    12   144   147    1
    13   144   145    1
    14   147   148    1
    15   134   135    1
    16   140   141   ar
    17   140   139    1
    18    51    52    2
    19    51    50    1
    20   218   219    1
    21   218   217    2
    22   145   146    2
    23   145   152   am
    24    50    49    1
    25   217   216    1
    26   152   153    1
    27   157   156    1
    28   158   156    1
    29    63    61   ar
    30    63    62   ar
    31    49    46    1
    32   162   161    2
    33   156   153    1
    34   153   154    1
    35   216   215    1
    36   105   106    1
    37   224   223    2
    38    61    59   ar
    39   176   175    1
    40    62    60   ar
    41   159   154   am
    42   159   160    1
    43   114   115   ar
    44   114   112   ar
    45   215   214    1
    46    45    46    1
    47   174   173    2
    48   223   222    1
    49   115   113   ar
    50    46    47    1
    51   161   160    1
    52   161   167   am
    53   154   155    2
    54   165   164    1
    55   112   110   ar
    56   164   166    1
    57   164   163    1
    58   130   129    2
    59   213   212    2
    60   106   107    1
    61   106   109    1
    62   228   227    1
    63   168   167    1
    64   168   169    1
    65   113   111   ar
    66   160   163    1
    67    59    60   ar
    68    59    58    1
    69   108   107    2
    70   173   172    1
    71   171   169   am
    72   171   172    1
    73   110   111   ar
    74   110   109    1
    75   225   222    1
    76   225   226    1
    77    47    48    2
    78    47    54   am
    79    43    42   ar
    80   129   128    1
    81   222   221    1
    82   175   172    1
    83   214   211    1
    84   169   170    2
    85   212   211    1
    86   132   131    1
    87    54    55    1
    88   211   210    1
    89   227   226    1
    90    44    42   ar
    91    58    55    1
    92    42    41    1
    93   131   128    1
    94   131   133    1
    95   128   127    1
    96    55    56    1
    97   127   118   am
    98    39    38    1
    99    39    40    2
   100   229   230    1
   101   210   203   am
   102   204   203    2
   103    41    38    1
   104    38    37    1
   105   203   202    1
   106    57    56    2
   107    56    64   am
   108   196   195    2
   109   116   117    1
   110   200   199    2
   111   180   179    2
   112   186   187    1
   113   186   183    1
   114   233   235    1
   115   233   230    1
   116   233   234    1
   117    35    34    1
   118   197   198    1
   119   230   231    1
   120   118   117    1
   121   118   119    2
   122   198   199    1
   123   187   189   ar
   124   187   188   ar
   125   183   182    1
   126   183   184    1
   127   117   120    1
   128   189   191   ar
   129    64    65    1
   130   195   194    1
   131   236   234    1
   132   126   125   ar
   133   126   124   ar
   134   193   184   am
   135   193   194    1
   136   125   123   ar
   137   179   182   am
   138   179   178    1
   139   124   122   ar
   140   202   205    1
   141   202   201    1
   142   177   178    1
   143   205   206    1
   144    34    36    1
   145    34    33    2
   146   188   190   ar
   147   191   192   ar
   148   123   121   ar
   149   231   232    2
   150   122   121   ar
   151   121   120    1
   152   184   185    2
   153    32    33    1
   154    32    31    1
   155   190   192   ar
   156   178   181    1
   157    65    68    1
   158    65    66    1
   159    95    93   am
   160    86    84   ar
   161    86    85   ar
   162    84    82   ar
   163    85    83   ar
   164    68    69    1
   165   206   207    1
   166    67    66    2
   167    82    81   ar
   168    30    31    1
   169    30    27    1
   170    83    81   ar
   171    81    80    1
   172    70    69   ar
   173    70    72   ar
   174    93    92    1
   175    93    94    2
   176   208   207   ar
   177     8    10   ar
   178     8     6   ar
   179    80    77    1
   180    29    28    2
   181    69    71   ar
   182    28    27    1
   183   207   209   ar
   184    92    91    1
   185    16    15    1
   186    27    26    1
   187    10     9   ar
   188    72    74   ar
   189     5     6    1
   190     5     2    1
   191     6     7   ar
   192    25    23   am
   193    91    88    1
   194   104   102   ar
   195   103   102   ar
   196    88    87    1
   197    88    89    1
   198    71    73   ar
   199    15    12    1
   200    77    76    1
   201    77    78    1
   202   102   101    1
   203    24    23    2
   204     9     7   ar
   205    74    73   ar
   206    74    75    1
   207    23    22    1
   208     2     1    1
   209     2     3    1
   210    89    90    2
   211    97    98    1
   212    97    96    1
   213    97   100    1
   214    78    79    2
   215    98    99    2
   216   101   100    1
   217    12    11    1
   218    12    13    1
   219     3     4    2
   220    22    21    1
   221    13    14    2
   222    21    18    1
   223    18    17    1
   224    18    19    1
   225    19    20    2
