@<TRIPOS>MOLECULE
tmp/3cn0B00.pdb
 86 78 0 0 0
SMALL
GASTEIGER

@<TRIPOS>ATOM
      1  N         -2.0010  -11.0820  -32.6950 N.3     3  MET3       -0.1245
      2  CA        -0.7710  -10.3130  -32.8070 C.3     3  MET3        0.1570
      3  C         -0.2740  -10.0090  -31.3830 C.2     3  MET3        0.2261
      4  O         -1.0960   -9.8740  -30.4590 O.2     3  MET3       -0.2867
      5  CB        -0.9740   -8.9730  -33.5500 C.3     3  MET3        0.0387
      6  CG         0.3670   -8.2160  -33.9850 C.3     3  MET3        0.0595
      7  SD         0.9000   -6.9730  -32.7680 S.3     3  MET3       -0.1393
      8  CE        -0.0840   -5.5570  -33.2240 C.3     3  MET3        0.0692
      9  N          2.4080   -7.4860  -29.1900 N.3     5  LYS5       -0.1245
     10  CA         3.1890   -6.2620  -29.2720 C.3     5  LYS5        0.1561
     11  C          3.8380   -6.0550  -27.9190 C.2     5  LYS5        0.2260
     12  O          3.1660   -6.1720  -26.8890 O.2     5  LYS5       -0.2867
     13  CB         2.3070   -5.0350  -29.5740 C.3     5  LYS5        0.0271
     14  CG         3.1500   -3.7300  -29.7170 C.3     5  LYS5        0.0035
     15  CD         2.4190   -2.6220  -30.4200 C.3     5  LYS5        0.0206
     16  CE         3.3490   -1.4170  -30.6550 C.3     5  LYS5        0.1093
     17  NZ         4.3820   -1.5280  -31.6990 N.3     5  LYS5       -0.1314
     18  N          6.5570   -3.5080  -25.6230 N.3     7  LEU7       -0.1245
     19  CA         7.1720   -2.2140  -25.4810 C.3     7  LEU7        0.1561
     20  C          8.0520   -2.1860  -24.2210 C.2     7  LEU7        0.2260
     21  O          7.7830   -2.9190  -23.2460 O.2     7  LEU7       -0.2867
     22  CB         6.0850   -1.1330  -25.3360 C.3     7  LEU7        0.0270
     23  CG         5.2420   -0.9210  -26.6140 C.3     7  LEU7        0.0019
     24  CD1        4.2270    0.1430  -26.2520 C.3     7  LEU7        0.0001
     25  CD2        6.0480   -0.5180  -27.8540 C.3     7  LEU7        0.0001
     26  N          6.6470   -6.0710  -32.6650 N.3    44  GLU44      -0.1245
     27  CA         5.4620   -6.8360  -33.0000 C.3    44  GLU44       0.1567
     28  C          5.8260   -8.1830  -33.5490 C.2    44  GLU44       0.2260
     29  O          6.9100   -8.3740  -34.1540 O.2    44  GLU44      -0.2867
     30  CB         4.5910   -6.0730  -34.0340 C.3    44  GLU44       0.0388
     31  CG         4.1140   -4.7070  -33.5000 C.3    44  GLU44       0.1160
     32  CD         3.2940   -3.8790  -34.4970 C.2    44  GLU44       0.3649
     33  OE1        3.2200   -4.2720  -35.6760 O.co2  44  GLU44      -0.2457
     34  OE2        2.7480   -2.8130  -34.0990 O.co2  44  GLU44      -0.2457
     35  N         -5.1570   -8.4930  -30.1930 N.3    96  THR96      -0.1218
     36  CA        -3.8360   -7.9680  -30.0020 C.3    96  THR96       0.1862
     37  C         -3.5430   -8.0460  -28.5180 C.2    96  THR96       0.2287
     38  O         -4.2980   -7.5300  -27.7030 O.2    96  THR96      -0.2866
     39  CB        -3.6890   -6.5080  -30.4830 C.3    96  THR96       0.1770
     40  OG1       -3.9120   -6.4790  -31.8860 O.3    96  THR96      -0.2211
     41  CG2       -2.3000   -5.9120  -30.1030 C.3    96  THR96       0.0375
     42  N         -0.9040   -6.8380  -25.9220 N.3    98  ALA98      -0.1231
     43  CA         0.1380   -5.8470  -25.7630 C.3    98  ALA98       0.1694
     44  C          0.7260   -5.9510  -24.3530 C.2    98  ALA98       0.2592
     45  O         -0.0170   -6.1420  -23.3770 O.2    98  ALA98      -0.2718
     46  CB        -0.3750   -4.4340  -26.0230 C.3    98  ALA98       0.0304
     47  N          2.0430   -5.8360  -24.2450 N.am   99  ALA99      -0.1966
     48  CA         2.7660   -5.8450  -22.9580 C.3    99  ALA99       0.1728
     49  C          3.7530   -4.7020  -22.9010 C.2    99  ALA99       0.2616
     50  O          4.4610   -4.4350  -23.8540 O.2    99  ALA99      -0.2715
     51  CB         3.5010   -7.1190  -22.7800 C.3    99  ALA99       0.0334
     52  N          3.7770   -4.0400  -21.7550 N.am  100  LEU100     -0.1977
     53  CA         4.6660   -2.9210  -21.4660 C.3   100  LEU100      0.1596
     54  C          5.5680   -3.3380  -20.3390 C.2   100  LEU100      0.2287
     55  O          5.0900   -3.6310  -19.2550 O.2   100  LEU100     -0.2864
     56  CB         3.8070   -1.7020  -21.0890 C.3   100  LEU100      0.0297
     57  CG         4.6500   -0.4730  -20.7600 C.3   100  LEU100      0.0022
     58  CD1        5.5180    0.0170  -21.9340 C.3   100  LEU100      0.0001
     59  CD2        3.6610    0.6430  -20.2970 C.3   100  LEU100      0.0001
     60  N          2.7530   -4.4590  -17.4970 N.3   107  SER107     -0.1202
     61  CA         1.3390   -4.3280  -17.7160 C.3   107  SER107      0.2020
     62  C          0.9740   -4.9810  -19.0410 C.2   107  SER107      0.2619
     63  O          1.7860   -5.0670  -19.9690 O.2   107  SER107     -0.2717
     64  CB         0.8820   -2.8850  -17.6410 C.3   107  SER107      0.2103
     65  OG         1.3160   -2.1380  -18.7680 O.3   107  SER107     -0.2182
     66  N         -0.2330   -5.5100  -19.0850 N.am  108  THR108     -0.1938
     67  CA        -0.7140   -6.1000  -20.3160 C.3   108  THR108      0.2028
     68  C         -2.1580   -5.7620  -20.5420 C.2   108  THR108      0.2642
     69  O         -2.9330   -5.6140  -19.5850 O.2   108  THR108     -0.2714
     70  CB        -0.4710   -7.6010  -20.2970 C.3   108  THR108      0.1808
     71  OG1       -0.7460   -8.1690  -21.5720 O.3   108  THR108     -0.2208
     72  CG2       -1.3160   -8.3350  -19.2400 C.3   108  THR108      0.0379
     73  N         -2.5000   -5.6300  -21.8210 N.am  109  THR109     -0.1950
     74  CA        -3.8860   -5.3720  -22.1990 C.3   109  THR109      0.1897
     75  C         -4.1850   -6.1560  -23.4510 C.2   109  THR109      0.2313
     76  O         -3.2840   -6.6180  -24.1720 O.2   109  THR109     -0.2863
     77  CB        -4.2340   -3.8620  -22.4010 C.3   109  THR109      0.1794
     78  OG1       -5.6770   -3.6850  -22.3770 O.3   109  THR109     -0.2208
     79  CG2       -3.6440   -3.2770  -23.5950 C.3   109  THR109      0.0378
     80  N         -6.6370   -5.9900  -26.9180 N.3   111  VAL111     -0.1245
     81  CA        -7.4870   -5.1860  -27.8010 C.3   111  VAL111      0.1561
     82  C         -8.1100   -6.1750  -28.7400 C.2   111  VAL111      0.2260
     83  O         -7.3900   -6.8490  -29.5150 O.2   111  VAL111     -0.2867
     84  CB        -6.6420   -4.1550  -28.5830 C.3   111  VAL111      0.0252
     85  CG1       -7.5260   -3.1910  -29.3590 C.3   111  VAL111      0.0019
     86  CG2       -5.6430   -3.4650  -27.6270 C.3   111  VAL111      0.0019
@<TRIPOS>BOND
     1    33    32   ar
     2    32    34   ar
     3    32    31    1
     4    29    28    2
     5    30    31    1
     6    30    27    1
     7     6     5    1
     8     6     7    1
     9     5     2    1
    10    28    27    1
    11     8     7    1
    12    27    26    1
    13     2     1    1
    14     2     3    1
    15    40    39    1
    16    17    16    1
    17     3     4    2
    18    16    15    1
    19    39    41    1
    20    39    36    1
    21    15    14    1
    22    35    36    1
    23    36    37    1
    24    14    13    1
    25    13    10    1
    26    83    82    2
    27    85    84    1
    28    10     9    1
    29    10    11    1
    30    82    81    1
    31    84    81    1
    32    84    86    1
    33    37    38    2
    34    11    12    2
    35    25    23    1
    36    81    80    1
    37    23    24    1
    38    23    22    1
    39    46    43    1
    40    42    43    1
    41    43    44    1
    42    18    19    1
    43    19    22    1
    44    19    20    1
    45    44    47   am
    46    44    45    2
    47    47    48    1
    48    20    21    2
    49    76    75    2
    50    50    49    2
    51    79    77    1
    52    75    74    1
    53    48    49    1
    54    48    51    1
    55    49    52   am
    56    77    78    1
    57    77    74    1
    58    74    73    1
    59    58    57    1
    60    73    68   am
    61    52    53    1
    62    71    70    1
    63    53    56    1
    64    53    54    1
    65    56    57    1
    66    57    59    1
    67    68    67    1
    68    68    69    2
    69    54    55    2
    70    67    70    1
    71    67    66    1
    72    70    72    1
    73    63    62    2
    74    66    62   am
    75    62    61    1
    76    65    64    1
    77    61    64    1
    78    61    60    1
