@<TRIPOS>MOLECULE
tmp/3cn2A00.pdb
 69 63 0 0 0
SMALL
GASTEIGER

@<TRIPOS>ATOM
      1  N         -1.1600   -7.8280   -2.9850 N.3     5  LYS5       -0.1245
      2  CA        -2.1400   -6.7380   -2.9290 C.3     5  LYS5        0.1561
      3  C         -2.8120   -6.5920   -4.2780 C.2     5  LYS5        0.2260
      4  O         -2.1220   -6.6100   -5.3040 O.2     5  LYS5       -0.2867
      5  CB        -1.4650   -5.4330   -2.5680 C.3     5  LYS5        0.0271
      6  CG        -2.3940   -4.2190   -2.4510 C.3     5  LYS5        0.0035
      7  CD        -1.7010   -3.0010   -1.9140 C.3     5  LYS5        0.0206
      8  CE        -2.6850   -1.8400   -1.8150 C.3     5  LYS5        0.1093
      9  NZ        -3.8500   -2.1270   -0.9740 N.3     5  LYS5       -0.1314
     10  N         -5.8600   -4.4320   -6.5000 N.3     7  LEU7       -0.1245
     11  CA        -6.6790   -3.2260   -6.6380 C.3     7  LEU7        0.1561
     12  C         -7.5710   -3.3510   -7.8620 C.2     7  LEU7        0.2260
     13  O         -7.1950   -3.9990   -8.8370 O.2     7  LEU7       -0.2867
     14  CB        -5.8000   -1.9760   -6.7910 C.3     7  LEU7        0.0270
     15  CG        -4.9730   -1.6390   -5.5550 C.3     7  LEU7        0.0019
     16  CD1       -4.1890   -0.3480   -5.7870 C.3     7  LEU7        0.0001
     17  CD2       -5.7940   -1.4600   -4.2710 C.3     7  LEU7        0.0001
     18  N          6.4030   -7.7850   -1.9350 N.3    96  THR96      -0.1218
     19  CA         5.0120   -7.4360   -2.1940 C.3    96  THR96       0.1862
     20  C          4.7610   -7.5560   -3.6760 C.2    96  THR96       0.2287
     21  O          5.4700   -6.9420   -4.4730 O.2    96  THR96      -0.2866
     22  CB         4.6620   -6.0270   -1.6890 C.3    96  THR96       0.1770
     23  OG1        4.8710   -5.9520   -0.2720 O.3    96  THR96      -0.2211
     24  CG2        3.1700   -5.6360   -2.0410 C.3    96  THR96       0.0375
     25  N          1.9850   -6.6920   -6.2740 N.3    98  ALA98      -0.1231
     26  CA         0.8030   -5.8790   -6.4270 C.3    98  ALA98       0.1694
     27  C          0.2200   -6.0670   -7.8500 C.2    98  ALA98       0.2592
     28  O          0.9670   -6.1970   -8.8250 O.2    98  ALA98      -0.2718
     29  CB         1.1430   -4.4340   -6.1580 C.3    98  ALA98       0.0304
     30  N         -1.1010   -6.0720   -7.9630 N.am   99  ALA99      -0.1966
     31  CA        -1.7790   -6.1530   -9.2640 C.3    99  ALA99       0.1728
     32  C         -2.9390   -5.1910   -9.2650 C.2    99  ALA99       0.2616
     33  O         -3.7440   -5.1430   -8.3130 O.2    99  ALA99      -0.2715
     34  CB        -2.2620   -7.5600   -9.5340 C.3    99  ALA99       0.0334
     35  N         -3.0160   -4.4280  -10.3530 N.am  100  LEU100     -0.1977
     36  CA        -4.1260   -3.4560  -10.6050 C.3   100  LEU100      0.1596
     37  C         -4.9300   -3.9980  -11.7700 C.2   100  LEU100      0.2287
     38  O         -4.3980   -4.1680  -12.8870 O.2   100  LEU100     -0.2864
     39  CB        -3.5110   -2.1060  -10.9640 C.3   100  LEU100      0.0297
     40  CG        -4.4900   -1.0230  -11.3930 C.3   100  LEU100      0.0022
     41  CD1       -5.4990   -0.6860  -10.2560 C.3   100  LEU100      0.0001
     42  CD2       -3.6910    0.2140  -11.8710 C.3   100  LEU100      0.0001
     43  N         -1.9530   -4.5560  -14.5830 N.3   107  SER107     -0.1202
     44  CA        -0.5970   -4.1410  -14.3630 C.3   107  SER107      0.2020
     45  C         -0.1080   -4.7840  -13.0800 C.2   107  SER107      0.2619
     46  O         -0.8620   -4.8570  -12.1200 O.2   107  SER107     -0.2717
     47  CB        -0.5710   -2.6400  -14.2770 C.3   107  SER107      0.2103
     48  OG         0.5440   -2.2000  -13.5710 O.3   107  SER107     -0.2182
     49  N          1.1200   -5.2570  -13.0620 N.am  108  THR108     -0.1938
     50  CA         1.6540   -5.8910  -11.8540 C.3   108  THR108      0.2028
     51  C          3.0450   -5.3430  -11.6060 C.2   108  THR108      0.2642
     52  O          3.8050   -5.1020  -12.5610 O.2   108  THR108     -0.2714
     53  CB         1.6310   -7.4250  -11.9530 C.3   108  THR108      0.1808
     54  OG1        2.0410   -7.9680  -10.6980 O.3   108  THR108     -0.2208
     55  CG2        2.5480   -7.9490  -13.0810 C.3   108  THR108      0.0379
     56  N          3.3940   -5.1920  -10.3370 N.am  109  THR109     -0.1950
     57  CA         4.7210   -4.7630   -9.9360 C.3   109  THR109      0.1897
     58  C          5.1280   -5.5060   -8.6890 C.2   109  THR109      0.2313
     59  O          4.3110   -6.1760   -8.0350 O.2   109  THR109     -0.2863
     60  CB         4.8160   -3.2250   -9.7350 C.3   109  THR109      0.1794
     61  OG1        6.2120   -2.8080   -9.7220 O.3   109  THR109     -0.2208
     62  CG2        4.1300   -2.7970   -8.4890 C.3   109  THR109      0.0378
     63  N          7.5780   -5.0210   -5.1240 N.3   111  VAL111     -0.1245
     64  CA         8.3770   -4.2070   -4.2000 C.3   111  VAL111      0.1561
     65  C          9.1470   -5.1880   -3.3490 C.2   111  VAL111      0.2260
     66  O          8.5420   -5.9970   -2.6270 O.2   111  VAL111     -0.2867
     67  CB         7.4740   -3.3130   -3.3310 C.3   111  VAL111      0.0252
     68  CG1        8.2790   -2.4160   -2.3770 C.3   111  VAL111      0.0019
     69  CG2        6.5950   -2.4840   -4.2830 C.3   111  VAL111      0.0019
@<TRIPOS>BOND
     1    43    44    1
     2    44    47    1
     3    44    45    1
     4    47    48    1
     5    55    53    1
     6    45    49   am
     7    45    46    2
     8    49    50    1
     9    38    37    2
    10    52    51    2
    11    53    50    1
    12    53    54    1
    13    42    40    1
    14    50    51    1
    15    37    36    1
    16    51    56   am
    17    40    39    1
    18    40    41    1
    19    39    36    1
    20    36    35    1
    21    35    32   am
    22    56    57    1
    23    57    60    1
    24    57    58    1
    25    60    61    1
    26    60    62    1
    27    34    31    1
    28    32    31    1
    29    32    33    2
    30    31    30    1
    31    13    12    2
    32    28    27    2
    33    58    59    2
    34    30    27   am
    35    12    11    1
    36    27    26    1
    37    14    11    1
    38    14    15    1
    39    11    10    1
    40    26    25    1
    41    26    29    1
    42    16    15    1
    43    15    17    1
    44     4     3    2
    45    63    64    1
    46    21    20    2
    47    69    67    1
    48     3     2    1
    49    64    65    1
    50    64    67    1
    51    20    19    1
    52    65    66    2
    53    67    68    1
    54     1     2    1
    55     2     5    1
    56     5     6    1
    57     6     7    1
    58    19    18    1
    59    19    22    1
    60    24    22    1
    61     7     8    1
    62     8     9    1
    63    22    23    1
