@<TRIPOS>MOLECULE
tmp/3cn3B00.pdb
 69 63 0 0 0
SMALL
GASTEIGER

@<TRIPOS>ATOM
      1  N          2.4030   -7.5730  -29.2880 N.3     5  LYS5       -0.1245
      2  CA         3.2250   -6.3390  -29.3200 C.3     5  LYS5        0.1561
      3  C          3.8380   -6.0770  -27.9630 C.2     5  LYS5        0.2260
      4  O          3.1640   -6.1590  -26.9280 O.2     5  LYS5       -0.2867
      5  CB         2.3800   -5.1400  -29.7130 C.3     5  LYS5        0.0271
      6  CG         3.1900   -3.8280  -29.8480 C.3     5  LYS5        0.0035
      7  CD         2.2970   -2.7230  -30.4170 C.3     5  LYS5        0.0206
      8  CE         3.1200   -1.5690  -30.8490 C.3     5  LYS5        0.1093
      9  NZ         2.2470   -0.6400  -31.6390 N.3     5  LYS5       -0.1314
     10  N          6.5520   -3.5710  -25.6870 N.3     7  LEU7       -0.1245
     11  CA         7.1260   -2.2190  -25.5620 C.3     7  LEU7        0.1561
     12  C          8.0290   -2.1610  -24.3110 C.2     7  LEU7        0.2260
     13  O          7.8150   -2.8760  -23.3410 O.2     7  LEU7       -0.2867
     14  CB         6.0310   -1.1660  -25.4540 C.3     7  LEU7        0.0270
     15  CG         5.0710   -1.1000  -26.6650 C.3     7  LEU7        0.0019
     16  CD1        4.0730   -0.0230  -26.3380 C.3     7  LEU7        0.0001
     17  CD2        5.8330   -0.8100  -27.9710 C.3     7  LEU7        0.0001
     18  N         -5.1310   -8.3510  -30.3260 N.3    96  THR96      -0.1218
     19  CA        -3.7770   -7.8810  -30.1230 C.3    96  THR96       0.1862
     20  C         -3.5010   -8.0000  -28.6530 C.2    96  THR96       0.2287
     21  O         -4.2490   -7.4430  -27.8120 O.2    96  THR96      -0.2866
     22  CB        -3.6150   -6.4090  -30.5160 C.3    96  THR96       0.1770
     23  OG1       -3.7420   -6.2950  -31.9200 O.3    96  THR96      -0.2211
     24  CG2       -2.2550   -5.8890  -30.0540 C.3    96  THR96       0.0375
     25  N         -0.9410   -6.8490  -26.0170 N.3    98  ALA98      -0.1231
     26  CA         0.1690   -5.9030  -25.8280 C.3    98  ALA98       0.1694
     27  C          0.7300   -5.9820  -24.4160 C.2    98  ALA98       0.2592
     28  O         -0.0040   -6.0970  -23.4470 O.2    98  ALA98      -0.2718
     29  CB        -0.2550   -4.4700  -26.1240 C.3    98  ALA98       0.0304
     30  N          2.0400   -5.9140  -24.3220 N.am   99  ALA99      -0.1966
     31  CA         2.7410   -5.8960  -23.0450 C.3    99  ALA99       0.1728
     32  C          3.7390   -4.7470  -22.9860 C.2    99  ALA99       0.2616
     33  O          4.5140   -4.5230  -23.9020 O.2    99  ALA99      -0.2715
     34  CB         3.4370   -7.2370  -22.7710 C.3    99  ALA99       0.0334
     35  N          3.7010   -4.0340  -21.8810 N.am  100  LEU100     -0.1977
     36  CA         4.5890   -2.9450  -21.5840 C.3   100  LEU100      0.1596
     37  C          5.5150   -3.3430  -20.4310 C.2   100  LEU100      0.2287
     38  O          5.0720   -3.6110  -19.3210 O.2   100  LEU100     -0.2864
     39  CB         3.7410   -1.7170  -21.2240 C.3   100  LEU100      0.0297
     40  CG         4.5830   -0.4750  -20.8330 C.3   100  LEU100      0.0022
     41  CD1        5.4600    0.0380  -22.0070 C.3   100  LEU100      0.0001
     42  CD2        3.6260    0.6780  -20.3910 C.3   100  LEU100      0.0001
     43  N          2.7080   -4.4420  -17.6680 N.3   107  SER107     -0.1202
     44  CA         1.2780   -4.3330  -17.8270 C.3   107  SER107      0.2020
     45  C          0.8870   -4.9910  -19.1300 C.2   107  SER107      0.2619
     46  O          1.6700   -5.0810  -20.1020 O.2   107  SER107     -0.2717
     47  CB         0.8050   -2.8860  -17.7730 C.3   107  SER107      0.2103
     48  OG         1.1980   -2.2040  -18.9360 O.3   107  SER107     -0.2182
     49  N         -0.3200   -5.5060  -19.1510 N.am  108  THR108     -0.1938
     50  CA        -0.7160   -6.1380  -20.3870 C.3   108  THR108      0.2028
     51  C         -2.1490   -5.7690  -20.6540 C.2   108  THR108      0.2642
     52  O         -2.9280   -5.5960  -19.7030 O.2   108  THR108     -0.2714
     53  CB        -0.5070   -7.6710  -20.3440 C.3   108  THR108      0.1808
     54  OG1       -0.7400   -8.1770  -21.6460 O.3   108  THR108     -0.2208
     55  CG2       -1.4180   -8.3980  -19.3210 C.3   108  THR108      0.0379
     56  N         -2.4820   -5.5960  -21.9210 N.am  109  THR109     -0.1950
     57  CA        -3.8650   -5.3110  -22.3160 C.3   109  THR109      0.1897
     58  C         -4.1990   -6.1140  -23.5630 C.2   109  THR109      0.2313
     59  O         -3.3040   -6.5620  -24.2890 O.2   109  THR109     -0.2863
     60  CB        -4.1930   -3.7710  -22.4740 C.3   109  THR109      0.1794
     61  OG1       -5.6250   -3.5800  -22.4520 O.3   109  THR109     -0.2208
     62  CG2       -3.6860   -3.2330  -23.7650 C.3   109  THR109      0.0378
     63  N         -6.5540   -5.8900  -27.0910 N.3   111  VAL111     -0.1245
     64  CA        -7.3300   -4.9820  -27.9650 C.3   111  VAL111      0.1561
     65  C         -7.9890   -5.9490  -28.9200 C.2   111  VAL111      0.2260
     66  O         -7.3090   -6.6150  -29.7530 O.2   111  VAL111     -0.2867
     67  CB        -6.4640   -3.9060  -28.7090 C.3   111  VAL111      0.0252
     68  CG1       -7.3650   -3.0020  -29.5430 C.3   111  VAL111      0.0019
     69  CG2       -5.6390   -3.0630  -27.7060 C.3   111  VAL111      0.0019
@<TRIPOS>BOND
     1    23    22    1
     2     9     8    1
     3     8     7    1
     4    22    19    1
     5    22    24    1
     6     7     6    1
     7    18    19    1
     8    19    20    1
     9     6     5    1
    10    66    65    2
    11     5     2    1
    12    68    67    1
    13     2     1    1
    14     2     3    1
    15    65    64    1
    16    67    64    1
    17    67    69    1
    18    20    21    2
    19    17    15    1
    20    64    63    1
    21     3     4    2
    22    15    16    1
    23    15    14    1
    24    29    26    1
    25    25    26    1
    26    26    27    1
    27    10    11    1
    28    11    14    1
    29    11    12    1
    30    27    30   am
    31    27    28    2
    32    30    31    1
    33    12    13    2
    34    59    58    2
    35    33    32    2
    36    62    60    1
    37    58    57    1
    38    31    32    1
    39    31    34    1
    40    32    35   am
    41    60    61    1
    42    60    57    1
    43    57    56    1
    44    41    40    1
    45    56    51   am
    46    35    36    1
    47    54    53    1
    48    36    39    1
    49    36    37    1
    50    39    40    1
    51    40    42    1
    52    51    50    1
    53    51    52    2
    54    37    38    2
    55    50    53    1
    56    50    49    1
    57    53    55    1
    58    46    45    2
    59    49    45   am
    60    45    44    1
    61    48    47    1
    62    44    47    1
    63    44    43    1
