@<TRIPOS>MOLECULE
tmp/3cn4A00.pdb
 77 70 0 0 0
SMALL
GASTEIGER

@<TRIPOS>ATOM
      1  N          3.8120  -10.8290    0.5450 N.3     3  MET3       -0.1245
      2  CA         2.4970  -10.2110    0.6980 C.3     3  MET3        0.1570
      3  C          2.0050   -9.9310   -0.7140 C.2     3  MET3        0.2261
      4  O          2.7780   -9.6120   -1.6080 O.2     3  MET3       -0.2867
      5  CB         2.5840   -8.9060    1.4800 C.3     3  MET3        0.0387
      6  CG         1.2490   -8.2210    1.8590 C.3     3  MET3        0.0595
      7  SD         0.5160   -7.1020    0.6750 S.3     3  MET3       -0.1393
      8  CE         1.3280   -5.5820    1.1580 C.3     3  MET3        0.0692
      9  N         -0.9980   -7.7510   -2.8550 N.3     5  LYS5       -0.1245
     10  CA        -2.0160   -6.6650   -2.7500 C.3     5  LYS5        0.1561
     11  C         -2.6960   -6.5420   -4.0940 C.2     5  LYS5        0.2260
     12  O         -1.9940   -6.5100   -5.1150 O.2     5  LYS5       -0.2867
     13  CB        -1.3580   -5.3420   -2.3320 C.3     5  LYS5        0.0271
     14  CG        -2.3820   -4.2090   -2.1130 C.3     5  LYS5        0.0035
     15  CD        -1.8500   -3.0470   -1.2950 C.3     5  LYS5        0.0206
     16  CE        -2.9600   -2.0450   -0.9660 C.3     5  LYS5        0.1093
     17  NZ        -2.4030   -1.0730    0.0820 N.3     5  LYS5       -0.1314
     18  N         -5.7020   -4.3340   -6.3340 N.3     7  LEU7       -0.1245
     19  CA        -6.6270   -3.1900   -6.4730 C.3     7  LEU7        0.1561
     20  C         -7.5040   -3.3590   -7.7110 C.2     7  LEU7        0.2260
     21  O         -7.1040   -3.9800   -8.7060 O.2     7  LEU7       -0.2867
     22  CB        -5.8020   -1.8750   -6.5690 C.3     7  LEU7        0.0270
     23  CG        -4.9610   -1.5220   -5.3650 C.3     7  LEU7        0.0019
     24  CD1       -4.1470   -0.2400   -5.6470 C.3     7  LEU7        0.0001
     25  CD2       -5.8550   -1.3350   -4.1680 C.3     7  LEU7        0.0001
     26  N          6.6070   -7.7940   -1.8870 N.3    96  THR96      -0.1218
     27  CA         5.2220   -7.4380   -2.0900 C.3    96  THR96       0.1862
     28  C          4.9430   -7.5170   -3.5740 C.2    96  THR96       0.2287
     29  O          5.6340   -6.8880   -4.3610 O.2    96  THR96      -0.2866
     30  CB         4.8860   -6.0310   -1.5760 C.3    96  THR96       0.1770
     31  OG1        5.0830   -5.9740   -0.1610 O.3    96  THR96      -0.2211
     32  CG2        3.4220   -5.6700   -1.8860 C.3    96  THR96       0.0375
     33  N          2.1400   -6.6120   -6.1440 N.3    98  ALA98      -0.1231
     34  CA         0.9470   -5.7730   -6.2440 C.3    98  ALA98       0.1694
     35  C          0.3650   -5.9310   -7.6460 C.2    98  ALA98       0.2592
     36  O          1.1200   -6.0950   -8.6110 O.2    98  ALA98      -0.2718
     37  CB         1.3320   -4.3040   -5.9860 C.3    98  ALA98       0.0304
     38  N         -0.9530   -5.9510   -7.7310 N.am   99  ALA99      -0.1966
     39  CA        -1.6000   -6.0430   -9.0290 C.3    99  ALA99       0.1728
     40  C         -2.7650   -5.0570   -9.0710 C.2    99  ALA99       0.2616
     41  O         -3.4510   -4.8580   -8.0670 O.2    99  ALA99      -0.2715
     42  CB        -2.1290   -7.4420   -9.2320 C.3    99  ALA99       0.0334
     43  N         -2.9970   -4.4850  -10.2550 N.am  100  LEU100     -0.1977
     44  CA        -4.1130   -3.5590  -10.5060 C.3   100  LEU100      0.1596
     45  C         -4.9220   -4.1580  -11.6470 C.2   100  LEU100      0.2287
     46  O         -4.3810   -4.4450  -12.7160 O.2   100  LEU100     -0.2864
     47  CB        -3.4970   -2.2280  -10.9650 C.3   100  LEU100      0.0297
     48  CG        -4.5170   -1.1530  -11.3440 C.3   100  LEU100      0.0022
     49  CD1       -5.3930   -0.7580  -10.1680 C.3   100  LEU100      0.0001
     50  CD2       -3.7530    0.1170  -11.8640 C.3   100  LEU100      0.0001
     51  N         -1.9320   -4.9150  -14.4340 N.3   107  SER107     -0.1202
     52  CA        -0.5600   -4.5220  -14.2030 C.3   107  SER107      0.2020
     53  C         -0.0760   -5.1550  -12.9240 C.2   107  SER107      0.2619
     54  O         -0.8640   -5.2740  -11.9680 O.2   107  SER107     -0.2717
     55  CB        -0.5190   -3.0100  -14.0420 C.3   107  SER107      0.2103
     56  OG         0.8050   -2.5100  -13.9450 O.3   107  SER107     -0.2182
     57  N          1.1960   -5.5290  -12.8910 N.am  108  THR108     -0.1938
     58  CA         1.7720   -6.0470  -11.6720 C.3   108  THR108      0.2028
     59  C          3.1330   -5.4200  -11.4460 C.2   108  THR108      0.2642
     60  O          3.8500   -5.1250  -12.4220 O.2   108  THR108     -0.2714
     61  CB         1.8770   -7.5670  -11.7230 C.3   108  THR108      0.1808
     62  OG1        2.2380   -8.0680  -10.4690 O.3   108  THR108     -0.2208
     63  CG2        2.8730   -8.0240  -12.7370 C.3   108  THR108      0.0379
     64  N          3.4440   -5.2000  -10.1920 N.am  109  THR109     -0.1950
     65  CA         4.7670   -4.7240   -9.7970 C.3   109  THR109      0.1897
     66  C          5.2460   -5.4460   -8.5340 C.2   109  THR109      0.2313
     67  O          4.4400   -5.9870   -7.8030 O.2   109  THR109     -0.2863
     68  CB         4.8450   -3.1440   -9.6200 C.3   109  THR109      0.1794
     69  OG1        6.2280   -2.7350   -9.6940 O.3   109  THR109     -0.2208
     70  CG2        4.2320   -2.6730   -8.3680 C.3   109  THR109      0.0378
     71  N          7.7470   -5.0830   -5.0930 N.3   111  VAL111     -0.1245
     72  CA         8.5460   -4.2510   -4.1820 C.3   111  VAL111      0.1561
     73  C          9.3300   -5.2250   -3.3400 C.2   111  VAL111      0.2260
     74  O          8.7400   -6.0600   -2.6340 O.2   111  VAL111     -0.2867
     75  CB         7.6540   -3.3800   -3.2960 C.3   111  VAL111      0.0252
     76  CG1        8.5040   -2.4700   -2.3380 C.3   111  VAL111      0.0019
     77  CG2        6.7050   -2.5440   -4.1830 C.3   111  VAL111      0.0019
@<TRIPOS>BOND
     1    51    52    1
     2    52    55    1
     3    52    53    1
     4    55    56    1
     5    53    57   am
     6    53    54    2
     7    57    58    1
     8    63    61    1
     9    46    45    2
    10    60    59    2
    11    50    48    1
    12    61    58    1
    13    61    62    1
    14    58    59    1
    15    45    44    1
    16    59    64   am
    17    48    47    1
    18    48    49    1
    19    47    44    1
    20    44    43    1
    21    43    40   am
    22    64    65    1
    23    65    68    1
    24    65    66    1
    25    69    68    1
    26    68    70    1
    27    42    39    1
    28    40    39    1
    29    40    41    2
    30    39    38    1
    31    21    20    2
    32    36    35    2
    33    66    67    2
    34    38    35   am
    35    20    19    1
    36    35    34    1
    37    22    19    1
    38    22    23    1
    39    19    18    1
    40    34    33    1
    41    34    37    1
    42    24    23    1
    43    23    25    1
    44    12    11    2
    45    71    72    1
    46    29    28    2
    47    77    75    1
    48    72    73    1
    49    72    75    1
    50    11    10    1
    51    28    27    1
    52    73    74    2
    53    75    76    1
    54     9    10    1
    55    10    13    1
    56    13    14    1
    57    14    15    1
    58    27    26    1
    59    27    30    1
    60    32    30    1
    61     4     3    2
    62    30    31    1
    63    15    16    1
    64    16    17    1
    65     3     2    1
    66     1     2    1
    67     7     8    1
    68     7     6    1
    69     2     5    1
    70     5     6    1
