@<TRIPOS>MOLECULE
tmp/3cn7B00.pdb
 126 121 0 0 0
SMALL
GASTEIGER

@<TRIPOS>ATOM
      1  N        -11.7430   -8.8790   29.3330 N.3    20  GLY20      -0.1210
      2  CA       -10.4960   -8.2130   29.6490 C.3    20  GLY20       0.1956
      3  C        -10.1390   -8.3610   31.1160 C.2    20  GLY20       0.2611
      4  O        -10.8440   -9.0250   31.8650 O.2    20  GLY20      -0.2717
      5  N         -9.0310   -7.7490   31.5270 N.am   21  LEU21      -0.1979
      6  CA        -8.5970   -7.8190   32.9150 C.3    21  LEU21       0.1596
      7  C         -9.6740   -7.1460   33.7420 C.2    21  LEU21       0.2287
      8  O        -10.1320   -6.0580   33.3840 O.2    21  LEU21      -0.2864
      9  CB        -7.2630   -7.0930   33.1020 C.3    21  LEU21       0.0297
     10  CG        -6.6780   -7.1600   34.5130 C.3    21  LEU21       0.0022
     11  CD1       -6.5480   -8.6070   34.9570 C.3    21  LEU21       0.0001
     12  CD2       -5.3240   -6.4700   34.5260 C.3    21  LEU21       0.0001
     13  N         -4.2600  -14.2090   34.0620 N.3    66  TYR66      -0.1241
     14  CA        -2.8960  -14.4580   34.4550 C.3    66  TYR66       0.1605
     15  C         -2.4280  -13.2070   35.1260 C.2    66  TYR66       0.2264
     16  O         -2.9270  -12.1220   34.8070 O.2    66  TYR66      -0.2867
     17  CB        -2.0350  -14.7590   33.2210 C.3    66  TYR66       0.0534
     18  CG        -2.1020  -13.7590   32.0650 C.ar   66  TYR66      -0.0201
     19  CD1       -1.3190  -12.6020   32.0570 C.ar   66  TYR66      -0.0009
     20  CD2       -2.8860  -14.0270   30.9520 C.ar   66  TYR66      -0.0009
     21  CE1       -1.3150  -11.7500   30.9630 C.ar   66  TYR66       0.0417
     22  CE2       -2.8950  -13.1950   29.8620 C.ar   66  TYR66       0.0417
     23  CZ        -2.1110  -12.0540   29.8540 C.ar   66  TYR66       0.1957
     24  OH        -2.1330  -11.2420   28.7270 O.3    66  TYR66      -0.2866
     25  N         -0.1470  -10.1100   35.8640 N.3    68  ILE68      -0.1245
     26  CA         0.7100   -9.2220   35.0880 C.3    68  ILE68       0.1561
     27  C          1.6550   -8.5770   36.0940 C.2    68  ILE68       0.2260
     28  O          1.2370   -7.7800   36.9240 O.2    68  ILE68      -0.2867
     29  CB        -0.1310   -8.1560   34.3660 C.3    68  ILE68       0.0252
     30  CG1       -0.9870   -8.8430   33.2890 C.3    68  ILE68       0.0019
     31  CG2        0.7790   -7.0920   33.8060 C.3    68  ILE68       0.0019
     32  CD1       -2.0450   -7.9710   32.6870 C.3    68  ILE68       0.0001
     33  N          4.2080   -6.5560   35.4350 N.3    70  ALA70      -0.1231
     34  CA         4.7190   -5.2460   35.0470 C.3    70  ALA70       0.1694
     35  C          4.2590   -4.7680   33.6780 C.2    70  ALA70       0.2592
     36  O          4.1740   -5.5400   32.7110 O.2    70  ALA70      -0.2718
     37  CB         6.2360   -5.2500   35.1050 C.3    70  ALA70       0.0304
     38  N          3.9750   -3.4780   33.6000 N.am   71  PHE71      -0.1976
     39  CA         3.5360   -2.8940   32.3500 C.3    71  PHE71       0.1639
     40  C          4.5500   -3.1850   31.2410 C.2    71  PHE71       0.2290
     41  O          4.2170   -3.1790   30.0600 O.2    71  PHE71      -0.2864
     42  CB         3.3130   -1.3820   32.5420 C.3    71  PHE71       0.0560
     43  CG         2.2540   -1.0600   33.5740 C.ar   71  PHE71      -0.0200
     44  CD1        0.9400   -1.5450   33.4270 C.ar   71  PHE71      -0.0042
     45  CD2        2.5650   -0.3100   34.7060 C.ar   71  PHE71      -0.0042
     46  CE1       -0.0560   -1.2890   34.3970 C.ar   71  PHE71      -0.0003
     47  CE2        1.5820   -0.0430   35.6880 C.ar   71  PHE71      -0.0003
     48  CZ         0.2660   -0.5370   35.5290 C.ar   71  PHE71      -0.0000
     49  N          4.6910  -11.6020   32.7390 N.3    77  ILE77      -0.1245
     50  CA         3.4560  -12.1790   33.2420 C.3    77  ILE77       0.1561
     51  C          3.6690  -13.5440   33.8950 C.2    77  ILE77       0.2260
     52  O          4.6910  -14.1830   33.6680 O.2    77  ILE77      -0.2867
     53  CB         2.4290  -12.2940   32.1080 C.3    77  ILE77       0.0252
     54  CG1        3.0140  -13.0570   30.9130 C.3    77  ILE77       0.0019
     55  CG2        2.0750  -10.9170   31.6360 C.3    77  ILE77       0.0019
     56  CD1        3.0670  -14.5410   31.0680 C.3    77  ILE77       0.0001
     57  N        -10.7050  -10.3930   24.1300 N.3   111  PHE111     -0.1227
     58  CA       -10.4020   -8.9570   24.1780 C.3   111  PHE111      0.1736
     59  C         -9.2640   -8.7590   25.1780 C.2   111  PHE111      0.2596
     60  O         -9.2160   -9.4210   26.2120 O.2   111  PHE111     -0.2718
     61  CB       -11.6320   -8.1930   24.6650 C.3   111  PHE111      0.0547
     62  CG       -11.4200   -6.7090   24.8220 C.ar  111  PHE111     -0.0202
     63  CD1      -11.3750   -5.8740   23.7200 C.ar  111  PHE111     -0.0042
     64  CD2      -11.2670   -6.1530   26.0770 C.ar  111  PHE111     -0.0042
     65  CE1      -11.1740   -4.4970   23.8850 C.ar  111  PHE111     -0.0003
     66  CE2      -11.0700   -4.7880   26.2360 C.ar  111  PHE111     -0.0003
     67  CZ       -11.0230   -3.9620   25.1460 C.ar  111  PHE111     -0.0000
     68  N         -8.3440   -7.8580   24.8670 N.am  112  SER112     -0.1938
     69  CA        -7.1900   -7.6060   25.7350 C.3   112  SER112      0.2055
     70  C         -6.5410   -8.9020   26.3010 C.2   112  SER112      0.2642
     71  O         -6.0300   -9.7210   25.5620 O.2   112  SER112     -0.2714
     72  CB        -7.6020   -6.6520   26.8700 C.3   112  SER112      0.2130
     73  OG        -6.4890   -6.2100   27.6490 O.3   112  SER112     -0.2179
     74  N         -6.5670   -9.0740   27.6080 N.am  113  GLN113     -0.1976
     75  CA        -5.9600  -10.2120   28.2510 C.3   113  GLN113      0.1601
     76  C         -6.5590  -11.5080   27.7280 C.2   113  GLN113      0.2287
     77  O         -5.8450  -12.5240   27.5110 O.2   113  GLN113     -0.2864
     78  CB        -6.1520  -10.0850   29.7590 C.3   113  GLN113      0.0394
     79  CG        -5.5190  -11.1810   30.5890 C.3   113  GLN113      0.0908
     80  CD        -5.6890  -10.9980   32.1020 C.2   113  GLN113      0.2608
     81  OE1       -6.8040  -10.8510   32.6200 O.2   113  GLN113     -0.2717
     82  NE2       -4.5740  -11.0290   32.8180 N.am  113  GLN113     -0.0878
     83  N         -2.3410   -8.9240   22.4320 N.3   139  TYR139     -0.1241
     84  CA        -0.9590   -9.2190   22.1600 C.3   139  TYR139      0.1605
     85  C         -0.8140  -10.6910   22.5140 C.2   139  TYR139      0.2264
     86  O         -1.7340  -11.2850   23.0560 O.2   139  TYR139     -0.2867
     87  CB        -0.0440   -8.3150   23.0100 C.3   139  TYR139      0.0534
     88  CG        -0.0930   -8.5470   24.5100 C.ar  139  TYR139     -0.0201
     89  CD1       -1.2930   -8.4710   25.2160 C.ar  139  TYR139     -0.0009
     90  CD2        1.0640   -8.9020   25.2090 C.ar  139  TYR139     -0.0009
     91  CE1       -1.3370   -8.7560   26.5740 C.ar  139  TYR139      0.0417
     92  CE2        1.0310   -9.1890   26.5620 C.ar  139  TYR139      0.0417
     93  CZ        -0.1690   -9.1220   27.2410 C.ar  139  TYR139      0.1957
     94  OH        -0.2100   -9.4620   28.5800 O.3   139  TYR139     -0.2866
     95  N         -3.5440    1.2640   25.9570 N.3   167  VAL167     -0.1231
     96  CA        -3.4810    0.2470   27.0040 C.3   167  VAL167      0.1692
     97  C         -2.7610   -0.9680   26.4280 C.2   167  VAL167      0.2591
     98  O         -2.0590   -1.6900   27.1380 O.2   167  VAL167     -0.2718
     99  CB        -4.8890   -0.1880   27.4430 C.3   167  VAL167      0.0266
    100  CG1       -4.8010   -1.2960   28.4550 C.3   167  VAL167      0.0020
    101  CG2       -5.6410    0.9880   28.0010 C.3   167  VAL167      0.0020
    102  N         -2.9720   -1.2150   25.1410 N.am  168  VAL168     -0.1980
    103  CA        -2.2970   -2.3120   24.4830 C.3   168  VAL168      0.1595
    104  C         -1.7510   -1.7080   23.2110 C.2   168  VAL168      0.2287
    105  O         -2.4960   -1.3390   22.3060 O.2   168  VAL168     -0.2864
    106  CB        -3.2510   -3.4830   24.1940 C.3   168  VAL168      0.0276
    107  CG1       -2.5350   -4.5660   23.3760 C.3   168  VAL168      0.0022
    108  CG2       -3.7250   -4.0820   25.5050 C.3   168  VAL168      0.0022
    109  N          2.2590   -4.2440   19.6470 N.3   172  LEU172     -0.1245
    110  CA         2.2590   -5.5740   20.2440 C.3   172  LEU172      0.1561
    111  C          1.1400   -6.3340   19.5900 C.2   172  LEU172      0.2260
    112  O          1.1920   -7.5530   19.4390 O.2   172  LEU172     -0.2867
    113  CB         2.0470   -5.4980   21.7480 C.3   172  LEU172      0.0270
    114  CG         3.3730   -5.1360   22.4430 C.3   172  LEU172      0.0019
    115  CD1        3.2040   -5.0270   23.9530 C.3   172  LEU172      0.0001
    116  CD2        4.4230   -6.1870   22.0860 C.3   172  LEU172      0.0001
    117  N         -8.9170    1.4170   23.7970 N.3   196  HIS196     -0.1241
    118  CA        -9.1410    0.0820   24.3310 C.3   196  HIS196      0.1621
    119  C        -10.6480   -0.0680   24.4340 C.2   196  HIS196      0.2264
    120  O        -11.2260    0.1610   25.4990 O.2   196  HIS196     -0.2867
    121  CB        -8.4900   -0.0540   25.7090 C.3   196  HIS196      0.0745
    122  CG        -8.0610   -1.4450   26.0280 C.ar  196  HIS196      0.0817
    123  ND1       -7.1650   -2.1430   25.2440 N.ar  196  HIS196     -0.2268
    124  CD2       -8.4140   -2.2780   27.0330 C.ar  196  HIS196      0.1154
    125  CE1       -6.9850   -3.3480   25.7550 C.ar  196  HIS196      0.1986
    126  NE2       -7.7320   -3.4550   26.8410 N.ar  196  HIS196     -0.2212
@<TRIPOS>BOND
     1   112   111    2
     2   111   110    1
     3   109   110    1
     4   110   113    1
     5   113   114    1
     6   116   114    1
     7    84    83    1
     8    84    85    1
     9    84    87    1
    10   105   104    2
    11   114   115    1
    12    85    86    2
    13    87    88    1
    14   104   103    1
    15   107   106    1
    16    63    65   ar
    17    63    62   ar
    18   117   118    1
    19    65    67   ar
    20    57    58    1
    21    58    61    1
    22    58    59    1
    23   106   103    1
    24   106   108    1
    25   118   119    1
    26   118   121    1
    27   119   120    2
    28   103   102    1
    29    88    90   ar
    30    88    89   ar
    31    61    62    1
    32    62    64   ar
    33    68    59   am
    34    68    69    1
    35   102    97   am
    36    67    66   ar
    37    59    60    2
    38    90    92   ar
    39    89    91   ar
    40   123   125   ar
    41   123   122   ar
    42    71    70    2
    43   121   122    1
    44    69    70    1
    45    69    72    1
    46   125   126   ar
    47    95    96    1
    48   122   124   ar
    49    64    66   ar
    50    70    74   am
    51    97    96    1
    52    97    98    2
    53    92    93   ar
    54    91    93   ar
    55   126   124   ar
    56    72    73    1
    57    96    99    1
    58    93    94    1
    59    99   101    1
    60    99   100    1
    61    77    76    2
    62    74    75    1
    63    76    75    1
    64    75    78    1
    65    24    23    1
    66     1     2    1
    67     2     3    1
    68    78    79    1
    69    23    22   ar
    70    23    21   ar
    71    22    20   ar
    72    41    40    2
    73    79    80    1
    74    54    56    1
    75    54    53    1
    76    20    18   ar
    77    21    19   ar
    78     3     5   am
    79     3     4    2
    80    40    39    1
    81     5     6    1
    82    55    53    1
    83    19    18   ar
    84    18    17    1
    85    80    81    2
    86    80    82   am
    87    53    50    1
    88    39    42    1
    89    39    38    1
    90    42    43    1
    91    32    30    1
    92    36    35    2
    93    49    50    1
    94     6     9    1
    95     6     7    1
    96     9    10    1
    97    17    14    1
    98    50    51    1
    99    30    29    1
   100     8     7    2
   101    44    43   ar
   102    44    46   ar
   103    43    45   ar
   104    38    35   am
   105    52    51    2
   106    35    34    1
   107    31    29    1
   108    13    14    1
   109    29    26    1
   110    46    48   ar
   111    14    15    1
   112    10    12    1
   113    10    11    1
   114    45    47   ar
   115    16    15    2
   116    34    37    1
   117    34    33    1
   118    26    25    1
   119    26    27    1
   120    48    47   ar
   121    27    28    2
