@<TRIPOS>MOLECULE
tmp/3cn8B00.pdb
 143 139 0 0 0
SMALL
GASTEIGER

@<TRIPOS>ATOM
      1  N         64.1810  -15.4060   60.4230 N.3    59  ALA59      -0.1231
      2  CA        63.5120  -16.6450   60.8170 C.3    59  ALA59       0.1694
      3  C         62.0020  -16.4490   60.9440 C.2    59  ALA59       0.2593
      4  O         61.5390  -15.3860   61.3660 O.2    59  ALA59      -0.2718
      5  CB        64.0630  -17.1390   62.1350 C.3    59  ALA59       0.0304
      6  N         61.2390  -17.4860   60.5980 N.am   60  SER60      -0.1938
      7  CA        59.7780  -17.4310   60.6510 C.3    60  SER60       0.2055
      8  C         59.1510  -18.6100   61.3620 C.2    60  SER60       0.2643
      9  O         58.0060  -18.5370   61.8180 O.2    60  SER60      -0.2714
     10  CB        59.1860  -17.4090   59.2350 C.3    60  SER60       0.2130
     11  OG        59.3420  -16.1520   58.6130 O.3    60  SER60      -0.2179
     12  N         59.8950  -19.7020   61.4460 N.am   61  TRP61      -0.1973
     13  CA        59.3620  -20.9140   62.0300 C.3    61  TRP61       0.1640
     14  C         60.1430  -21.5040   63.1800 C.2    61  TRP61       0.2290
     15  O         61.3450  -21.3020   63.2970 O.2    61  TRP61      -0.2864
     16  CB        59.2760  -21.9930   60.9440 C.3    61  TRP61       0.0576
     17  CG        58.2730  -21.7610   59.8580 C.ar   61  TRP61       0.0006
     18  CD1       56.9200  -21.9460   59.9360 C.ar   61  TRP61       0.0946
     19  CD2       58.5520  -21.3860   58.5020 C.ar   61  TRP61       0.0152
     20  NE1       56.3420  -21.7220   58.7130 N.ar   61  TRP61      -0.2442
     21  CE2       57.3140  -21.3720   57.8120 C.ar   61  TRP61       0.0810
     22  CE3       59.7270  -21.0630   57.8000 C.ar   61  TRP61       0.0012
     23  CZ2       57.2130  -21.0450   56.4500 C.ar   61  TRP61       0.0191
     24  CZ3       59.6320  -20.7420   56.4480 C.ar   61  TRP61       0.0001
     25  CH2       58.3790  -20.7340   55.7860 C.ar   61  TRP61       0.0015
     26  N         61.2420  -24.9160   64.2700 N.3    63  HIS63      -0.1241
     27  CA        61.3450  -26.2230   63.6530 C.3    63  HIS63       0.1621
     28  C         61.4210  -27.2660   64.7510 C.2    63  HIS63       0.2264
     29  O         61.6360  -26.9360   65.9170 O.2    63  HIS63      -0.2867
     30  CB        62.6000  -26.3080   62.7670 C.3    63  HIS63       0.0745
     31  CG        62.6400  -25.2960   61.6600 C.ar   63  HIS63       0.0817
     32  ND1       61.6800  -25.2310   60.6720 N.ar   63  HIS63      -0.2268
     33  CD2       63.5360  -24.3180   61.3800 C.ar   63  HIS63       0.1154
     34  CE1       61.9840  -24.2540   59.8330 C.ar   63  HIS63       0.1986
     35  NE2       63.1050  -23.6860   60.2400 N.ar   63  HIS63      -0.2212
     36  N         65.2120  -24.5460   49.2320 N.3   169  LEU169     -0.1231
     37  CA        64.7160  -23.5090   50.1110 C.3   169  LEU169      0.1693
     38  C         64.8820  -23.8180   51.6000 C.2   169  LEU169      0.2592
     39  O         64.4090  -23.0740   52.4540 O.2   169  LEU169     -0.2718
     40  CB        63.2540  -23.1770   49.7850 C.3   169  LEU169      0.0284
     41  CG        62.9880  -22.5130   48.4290 C.3   169  LEU169      0.0019
     42  CD1       64.0180  -21.4070   48.1800 C.3   169  LEU169      0.0001
     43  CD2       63.0570  -23.5560   47.3210 C.3   169  LEU169      0.0001
     44  N         65.5430  -24.9210   51.9130 N.am  170  TRP170     -0.1976
     45  CA        65.8000  -25.2460   53.3040 C.3   170  TRP170      0.1640
     46  C         67.2490  -24.8810   53.5800 C.2   170  TRP170      0.2290
     47  O         67.6300  -24.5700   54.7110 O.2   170  TRP170     -0.2864
     48  CB        65.5890  -26.7330   53.5870 C.3   170  TRP170      0.0576
     49  CG        64.1800  -27.0650   53.9470 C.ar  170  TRP170      0.0006
     50  CD1       63.1550  -27.3880   53.0900 C.ar  170  TRP170      0.0946
     51  CD2       63.6120  -27.0480   55.2650 C.ar  170  TRP170      0.0152
     52  NE1       61.9870  -27.5720   53.7970 N.ar  170  TRP170     -0.2442
     53  CE2       62.2350  -27.3690   55.1320 C.ar  170  TRP170      0.0810
     54  CE3       64.1310  -26.7910   56.5480 C.ar  170  TRP170      0.0012
     55  CZ2       61.3670  -27.4390   56.2400 C.ar  170  TRP170      0.0191
     56  CZ3       63.2680  -26.8610   57.6480 C.ar  170  TRP170      0.0001
     57  CH2       61.9000  -27.1840   57.4830 C.ar  170  TRP170      0.0015
     58  N         67.3850  -34.6500   55.9010 N.3   185  PHE185     -0.1241
     59  CA        67.5130  -34.6270   57.3510 C.3   185  PHE185      0.1605
     60  C         66.1130  -34.7610   57.9170 C.2   185  PHE185      0.2264
     61  O         65.1640  -34.1940   57.3750 O.2   185  PHE185     -0.2867
     62  CB        68.1070  -33.2940   57.8020 C.3   185  PHE185      0.0534
     63  CG        67.2640  -32.1070   57.4250 C.ar  185  PHE185     -0.0203
     64  CD1       66.6670  -31.3210   58.4060 C.ar  185  PHE185     -0.0042
     65  CD2       67.0430  -31.7930   56.0840 C.ar  185  PHE185     -0.0042
     66  CE1       65.8560  -30.2330   58.0570 C.ar  185  PHE185     -0.0003
     67  CE2       66.2350  -30.7120   55.7200 C.ar  185  PHE185     -0.0003
     68  CZ        65.6400  -29.9300   56.7100 C.ar  185  PHE185     -0.0000
     69  N         56.2690  -27.9850   61.9770 N.3   191  ASN191     -0.1240
     70  CA        56.8520  -26.6790   62.2310 C.3   191  ASN191      0.1653
     71  C         55.7530  -25.7550   62.7600 C.2   191  ASN191      0.2266
     72  O         54.5670  -26.0200   62.5790 O.2   191  ASN191     -0.2867
     73  CB        57.4460  -26.1050   60.9410 C.3   191  ASN191      0.1155
     74  CG        58.4710  -27.0280   60.3180 C.2   191  ASN191      0.2627
     75  OD1       59.5570  -27.2270   60.8610 O.2   191  ASN191     -0.2716
     76  ND2       58.1230  -27.6110   59.1740 N.am  191  ASN191     -0.0877
     77  N         69.6380  -17.8190   51.8840 N.3   290  LEU290     -0.1245
     78  CA        68.1900  -17.8740   51.8020 C.3   290  LEU290      0.1561
     79  C         67.7110  -16.4190   51.9050 C.2   290  LEU290      0.2260
     80  O         68.1600  -15.6660   52.7760 O.2   290  LEU290     -0.2867
     81  CB        67.6180  -18.6790   52.9700 C.3   290  LEU290      0.0270
     82  CG        66.1210  -19.0060   52.8860 C.3   290  LEU290      0.0019
     83  CD1       65.9240  -20.1260   51.8560 C.3   290  LEU290      0.0001
     84  CD2       65.5830  -19.4570   54.2510 C.3   290  LEU290      0.0001
     85  N         64.1940  -13.5200   51.3570 N.3   292  LYS292     -0.1245
     86  CA        62.7430  -13.4090   51.3620 C.3   292  LYS292      0.1561
     87  C         62.2060  -12.2010   50.6090 C.2   292  LYS292      0.2260
     88  O         62.8470  -11.1530   50.5390 O.2   292  LYS292     -0.2867
     89  CB        62.2140  -13.3470   52.7910 C.3   292  LYS292      0.0271
     90  CG        62.4270  -14.6020   53.5870 C.3   292  LYS292      0.0035
     91  CD        61.6260  -14.5480   54.8700 C.3   292  LYS292      0.0206
     92  CE        61.8230  -15.8140   55.6780 C.3   292  LYS292      0.1093
     93  NZ        60.7350  -15.9850   56.6630 N.3   292  LYS292     -0.1314
     94  N         50.8820  -23.3990   51.4700 N.3   308  LYS308     -0.1245
     95  CA        52.1880  -23.7900   50.9180 C.3   308  LYS308      0.1561
     96  C         52.1240  -23.9830   49.4010 C.2   308  LYS308      0.2260
     97  O         51.4020  -24.8510   48.9030 O.2   308  LYS308     -0.2867
     98  CB        52.6680  -25.1030   51.5490 C.3   308  LYS308      0.0271
     99  CG        52.8780  -25.0690   53.0460 C.3   308  LYS308      0.0035
    100  CD        54.1510  -24.3320   53.4150 C.3   308  LYS308      0.0206
    101  CE        54.3560  -24.3060   54.9180 C.3   308  LYS308      0.1093
    102  NZ        53.4210  -23.3660   55.5810 N.3   308  LYS308     -0.1314
    103  N         59.5230  -20.7630   46.6800 N.3   350  PHE350     -0.1241
    104  CA        58.6030  -21.2700   47.6810 C.3   350  PHE350      0.1605
    105  C         57.7420  -20.1530   48.2480 C.2   350  PHE350      0.2264
    106  O         58.2450  -19.2280   48.8910 O.2   350  PHE350     -0.2867
    107  CB        59.4040  -21.9670   48.7820 C.3   350  PHE350      0.0534
    108  CG        58.5920  -22.3430   49.9870 C.ar  350  PHE350     -0.0203
    109  CD1       57.3620  -22.9750   49.8500 C.ar  350  PHE350     -0.0042
    110  CD2       59.0640  -22.0720   51.2670 C.ar  350  PHE350     -0.0042
    111  CE1       56.6120  -23.3280   50.9770 C.ar  350  PHE350     -0.0003
    112  CE2       58.3200  -22.4240   52.3970 C.ar  350  PHE350     -0.0003
    113  CZ        57.0950  -23.0510   52.2480 C.ar  350  PHE350     -0.0000
    114  N         60.3300  -17.5280   49.5470 N.3   366  LEU366     -0.1245
    115  CA        61.7110  -17.8560   49.8450 C.3   366  LEU366      0.1561
    116  C         62.4810  -18.1110   48.5570 C.2   366  LEU366      0.2260
    117  O         61.9560  -18.7090   47.6140 O.2   366  LEU366     -0.2867
    118  CB        61.7840  -19.0820   50.7580 C.3   366  LEU366      0.0270
    119  CG        61.5890  -18.8280   52.2600 C.3   366  LEU366      0.0019
    120  CD1       60.2330  -18.1810   52.5240 C.3   366  LEU366      0.0001
    121  CD2       61.6860  -20.1330   53.0040 C.3   366  LEU366      0.0001
    122  N         72.8320  -18.2570   56.8240 N.3   434  TYR434     -0.1241
    123  CA        73.2950  -19.1810   57.8590 C.3   434  TYR434      0.1605
    124  C         74.2020  -20.2740   57.3080 C.2   434  TYR434      0.2264
    125  O         74.2990  -20.4630   56.0930 O.2   434  TYR434     -0.2867
    126  CB        72.0980  -19.7990   58.6010 C.3   434  TYR434      0.0534
    127  CG        71.0020  -20.3590   57.7100 C.ar  434  TYR434     -0.0201
    128  CD1       71.1280  -21.6170   57.1090 C.ar  434  TYR434     -0.0009
    129  CD2       69.8320  -19.6340   57.4730 C.ar  434  TYR434     -0.0009
    130  CE1       70.1160  -22.1390   56.2940 C.ar  434  TYR434      0.0417
    131  CE2       68.8120  -20.1450   56.6630 C.ar  434  TYR434      0.0417
    132  CZ        68.9620  -21.3980   56.0750 C.ar  434  TYR434      0.1957
    133  OH        67.9640  -21.9000   55.2660 O.3   434  TYR434     -0.2866
    134  N         72.0600  -24.1840   62.5860 N.3   471  GLY471     -0.1210
    135  CA        71.3870  -23.3810   61.5840 C.3   471  GLY471      0.1956
    136  C         70.0450  -22.8310   62.0280 C.2   471  GLY471      0.2612
    137  O         69.5180  -21.9110   61.4160 O.2   471  GLY471     -0.2717
    138  N         69.4850  -23.3760   63.0990 N.am  472  CYS472     -0.1970
    139  CA        68.1800  -22.9170   63.5780 C.3   472  CYS472      0.1712
    140  C         68.2220  -21.8930   64.7190 C.2   472  CYS472      0.2296
    141  O         69.2110  -21.7780   65.4380 O.2   472  CYS472     -0.2864
    142  CB        67.3300  -24.1240   64.0020 C.3   472  CYS472      0.0983
    143  SG        66.9210  -25.2260   62.6220 S.3   472  CYS472     -0.0798
@<TRIPOS>BOND
     1   103   104    1
     2    43    41    1
     3   117   116    2
     4   104   105    1
     5   104   107    1
     6    42    41    1
     7   105   106    2
     8    41    40    1
     9   116   115    1
    10   107   108    1
    11    97    96    2
    12    36    37    1
    13    96    95    1
    14   114   115    1
    15    40    37    1
    16   115   118    1
    17   109   108   ar
    18   109   111   ar
    19   108   110   ar
    20    37    38    1
    21    88    87    2
    22    87    86    1
    23   118   119    1
    24    95    94    1
    25    95    98    1
    26   111   113   ar
    27   110   112   ar
    28    85    86    1
    29    86    89    1
    30    98    99    1
    31    38    44   am
    32    38    39    2
    33    78    77    1
    34    78    79    1
    35    78    81    1
    36    83    82    1
    37    79    80    2
    38    44    45    1
    39   113   112   ar
    40   119   120    1
    41   119   121    1
    42    89    90    1
    43    82    81    1
    44    82    84    1
    45    99   100    1
    46    50    52   ar
    47    50    49   ar
    48    45    46    1
    49    45    48    1
    50   100   101    1
    51    46    47    2
    52    48    49    1
    53    90    91    1
    54    52    53   ar
    55    49    51   ar
    56    91    92    1
    57   101   102    1
    58    53    51   ar
    59    53    55   ar
    60    51    54   ar
    61   133   132    1
    62    92    93    1
    63    67    65   ar
    64    67    68   ar
    65    25    24   ar
    66    25    23   ar
    67    58    59    1
    68   132   130   ar
    69   132   131   ar
    70    65    63   ar
    71   125   124    2
    72    55    57   ar
    73   130   128   ar
    74    24    22   ar
    75    23    21   ar
    76    54    56   ar
    77   131   129   ar
    78    68    66   ar
    79   122   123    1
    80   128   127   ar
    81   124   123    1
    82    59    62    1
    83    59    60    1
    84    61    60    2
    85    63    62    1
    86    63    64   ar
    87   129   127   ar
    88    57    56   ar
    89   127   126    1
    90    22    19   ar
    91    21    19   ar
    92    21    20   ar
    93   123   126    1
    94    66    64   ar
    95    19    17   ar
    96    11    10    1
    97    20    18   ar
    98    76    74   am
    99    10     7    1
   100    34    35   ar
   101    34    32   ar
   102    17    18   ar
   103    17    16    1
   104    35    33   ar
   105    74    75    2
   106    74    73    1
   107     1     2    1
   108     6     7    1
   109     6     3   am
   110     7     8    1
   111    32    31   ar
   112     2     3    1
   113     2     5    1
   114    73    70    1
   115    16    13    1
   116     3     4    2
   117     8    12   am
   118     8     9    2
   119    33    31   ar
   120   137   136    2
   121    12    13    1
   122   135   136    1
   123   135   134    1
   124    31    30    1
   125    69    70    1
   126   136   138   am
   127    13    14    1
   128    70    71    1
   129    72    71    2
   130   143   142    1
   131    30    27    1
   132   138   139    1
   133    14    15    2
   134   139   142    1
   135   139   140    1
   136    27    26    1
   137    27    28    1
   138   140   141    2
   139    28    29    2
