@<TRIPOS>MOLECULE
tmp/3cn9A00.pdb
 97 95 0 0 0
SMALL
GASTEIGER

@<TRIPOS>ATOM
      1  N         29.6220   29.8170    9.7980 N.3    27  ASP27      -0.1225
      2  CA        28.5160   29.0790   10.4180 C.3    27  ASP27       0.1805
      3  C         27.1470   29.5170    9.8940 C.2    27  ASP27       0.2597
      4  O         26.3130   28.6840    9.5520 O.2    27  ASP27      -0.2718
      5  CB        28.5160   29.3090   11.9400 C.3    27  ASP27       0.1424
      6  CG        28.9830   28.1030   12.7270 C.2    27  ASP27       0.3668
      7  OD1       30.0030   27.4810   12.3250 O.co2  27  ASP27      -0.2456
      8  OD2       28.3270   27.8030   13.7700 O.co2  27  ASP27      -0.2456
      9  N         26.9250   30.8250    9.8650 N.am   28  PHE28      -0.1976
     10  CA        25.6590   31.3840    9.4230 C.3    28  PHE28       0.1639
     11  C         25.5680   31.8700    7.9750 C.2    28  PHE28       0.2290
     12  O         24.5930   32.5130    7.5860 O.2    28  PHE28      -0.2864
     13  CB        25.2530   32.4960   10.3890 C.3    28  PHE28       0.0560
     14  CG        24.7170   31.9730   11.6810 C.ar   28  PHE28      -0.0200
     15  CD1       23.3880   31.5650   11.7830 C.ar   28  PHE28      -0.0042
     16  CD2       25.5560   31.7920   12.7760 C.ar   28  PHE28      -0.0042
     17  CE1       22.9020   30.9750   12.9660 C.ar   28  PHE28      -0.0003
     18  CE2       25.0770   31.2020   13.9570 C.ar   28  PHE28      -0.0003
     19  CZ        23.7410   30.7940   14.0440 C.ar   28  PHE28      -0.0000
     20  N         24.9910   30.1550    5.1790 N.3    30  PRO30      -0.2102
     21  CA        23.8120   29.6240    4.4740 C.3    30  PRO30       0.1504
     22  C         22.5340   30.3310    4.9260 C.2    30  PRO30       0.2575
     23  O         21.6280   30.5970    4.1200 O.2    30  PRO30      -0.2718
     24  CB        23.8330   28.1310    4.8300 C.3    30  PRO30       0.0282
     25  CG        25.3180   27.8560    4.9110 C.3    30  PRO30       0.0208
     26  CD        25.7990   29.0630    5.7370 C.3    30  PRO30       0.0893
     27  N         22.4770   30.6620    6.2150 N.am   31  VAL31      -0.1980
     28  CA        21.3250   31.3650    6.7710 C.3    31  VAL31       0.1595
     29  C         21.2150   32.7410    6.1370 C.2    31  VAL31       0.2287
     30  O         20.1360   33.1580    5.7130 O.2    31  VAL31      -0.2864
     31  CB        21.4560   31.5220    8.3020 C.3    31  VAL31       0.0276
     32  CG1       20.5080   32.6140    8.8050 C.3    31  VAL31       0.0022
     33  CG2       21.1380   30.1810    8.9800 C.3    31  VAL31       0.0022
     34  N         20.0970   32.5860    2.5820 N.3    34  ALA34      -0.1245
     35  CA        18.6720   32.2890    2.5260 C.3    34  ALA34       0.1562
     36  C         17.8680   33.5720    2.7760 C.2    34  ALA34       0.2260
     37  O         16.8980   33.8660    2.0680 O.2    34  ALA34      -0.2867
     38  CB        18.3190   31.2350    3.5550 C.3    34  ALA34       0.0290
     39  N         23.4940   34.2730   17.8060 N.3   111  PHE111     -0.1241
     40  CA        23.1030   32.9440   18.2530 C.3   111  PHE111      0.1605
     41  C         23.9140   32.7140   19.5120 C.2   111  PHE111      0.2264
     42  O         25.1410   32.9150   19.5150 O.2   111  PHE111     -0.2867
     43  CB        23.4900   31.8820   17.2360 C.3   111  PHE111      0.0534
     44  CG        23.1960   30.4840   17.6870 C.ar  111  PHE111     -0.0203
     45  CD1       21.9170   29.9380   17.5290 C.ar  111  PHE111     -0.0042
     46  CD2       24.1920   29.7080   18.2900 C.ar  111  PHE111     -0.0042
     47  CE1       21.6300   28.6340   17.9630 C.ar  111  PHE111     -0.0003
     48  CE2       23.9150   28.3940   18.7300 C.ar  111  PHE111     -0.0003
     49  CZ        22.6340   27.8590   18.5650 C.ar  111  PHE111     -0.0000
     50  N         19.6240   23.0130   20.8710 N.3   196  HIS196     -0.1226
     51  CA        20.4700   24.1840   20.6750 C.3   196  HIS196      0.1752
     52  C         20.8800   24.2010   19.2130 C.2   196  HIS196      0.2596
     53  O         21.9770   23.7700   18.8700 O.2   196  HIS196     -0.2718
     54  CB        21.7070   24.0640   21.5630 C.3   196  HIS196      0.0759
     55  CG        22.4700   25.3440   21.7250 C.ar  196  HIS196      0.0818
     56  ND1       21.9220   26.4650   22.3080 N.ar  196  HIS196     -0.2268
     57  CD2       23.7500   25.6630   21.4230 C.ar  196  HIS196      0.1154
     58  CE1       22.8350   27.4210   22.3650 C.ar  196  HIS196      0.1986
     59  NE2       23.9540   26.9590   21.8360 N.ar  196  HIS196     -0.2212
     60  N         20.0170   24.7220   18.3510 N.am  197  GLU197     -0.1965
     61  CA        20.3280   24.7020   16.9310 C.3   197  GLU197      0.1733
     62  C         19.4480   25.7040   16.2310 C.2   197  GLU197      0.2616
     63  O         18.7620   26.4860   16.8690 O.2   197  GLU197     -0.2715
     64  CB        20.0410   23.2960   16.3700 C.3   197  GLU197      0.0429
     65  CG        18.5820   22.8650   16.6050 C.3   197  GLU197      0.1163
     66  CD        18.3440   21.3450   16.4700 C.2   197  GLU197      0.3649
     67  OE1       18.7090   20.7740   15.4310 O.co2 197  GLU197     -0.2457
     68  OE2       17.7850   20.7260   17.4060 O.co2 197  GLU197     -0.2457
     69  N         19.4830   25.6600   14.9050 N.am  198  VAL198     -0.1963
     70  CA        18.6920   26.5310   14.0640 C.3   198  VAL198      0.1727
     71  C         17.9000   25.6240   13.1100 C.2   198  VAL198      0.2617
     72  O         18.4010   24.5750   12.6840 O.2   198  VAL198     -0.2715
     73  CB        19.5730   27.5590   13.3300 C.3   198  VAL198      0.0290
     74  CG1       20.2660   28.4750   14.3270 C.3   198  VAL198      0.0023
     75  CG2       20.5910   26.8540   12.4460 C.3   198  VAL198      0.0023
     76  N         16.6620   26.0040   12.7960 N.am  199  SER199     -0.1936
     77  CA        15.8410   25.1960   11.8920 C.3   199  SER199      0.2055
     78  C         15.3650   26.0540   10.7400 C.2   199  SER199      0.2642
     79  O         15.3270   27.2730   10.8490 O.2   199  SER199     -0.2714
     80  CB        14.6260   24.6280   12.6290 C.3   199  SER199      0.2130
     81  OG        13.7010   25.6520   12.9380 O.3   199  SER199     -0.2179
     82  N         14.9830   25.4220    9.6380 N.am  200  LEU200     -0.1977
     83  CA        14.5090   26.1710    8.4800 C.3   200  LEU200      0.1596
     84  C         13.2070   26.9280    8.8070 C.2   200  LEU200      0.2287
     85  O         12.9960   28.0640    8.3450 O.2   200  LEU200     -0.2864
     86  CB        14.3270   25.2150    7.2890 C.3   200  LEU200      0.0297
     87  CG        14.1120   25.7730    5.8760 C.3   200  LEU200      0.0022
     88  CD1       15.0800   26.9010    5.5960 C.3   200  LEU200      0.0001
     89  CD2       14.3120   24.6460    4.8610 C.3   200  LEU200      0.0001
     90  N         14.1610   29.9940   10.3770 N.3   203  ILE203     -0.1245
     91  CA        14.6730   30.9810    9.4350 C.3   203  ILE203      0.1561
     92  C         13.5530   31.6210    8.6270 C.2   203  ILE203      0.2260
     93  O         13.6210   32.8110    8.3160 O.2   203  ILE203     -0.2867
     94  CB        15.7280   30.3640    8.5130 C.3   203  ILE203      0.0252
     95  CG1       16.8670   29.7760    9.3540 C.3   203  ILE203      0.0019
     96  CG2       16.2740   31.4270    7.5810 C.3   203  ILE203      0.0019
     97  CD1       17.4500   30.7660   10.3810 C.3   203  ILE203      0.0001
@<TRIPOS>BOND
     1    37    36    2
     2    35    34    1
     3    35    36    1
     4    35    38    1
     5    23    22    2
     6    21    24    1
     7    21    22    1
     8    21    20    1
     9    24    25    1
    10    89    87    1
    11    25    26    1
    12    22    27   am
    13    20    26    1
    14    88    87    1
    15    30    29    2
    16    87    86    1
    17    29    28    1
    18    27    28    1
    19    28    31    1
    20    86    83    1
    21    96    94    1
    22    12    11    2
    23    11    10    1
    24    31    32    1
    25    31    33    1
    26    93    92    2
    27    85    84    2
    28    83    84    1
    29    83    82    1
    30    94    95    1
    31    94    91    1
    32    92    91    1
    33    95    97    1
    34    10     9    1
    35    10    13    1
    36    91    90    1
    37     4     3    2
    38    82    78   am
    39     1     2    1
    40     9     3   am
    41     3     2    1
    42    13    14    1
    43     2     5    1
    44    78    79    2
    45    78    77    1
    46    14    15   ar
    47    14    16   ar
    48    15    17   ar
    49    77    80    1
    50    77    76    1
    51     5     6    1
    52     7     6   ar
    53    75    73    1
    54    80    81    1
    55    72    71    2
    56     6     8   ar
    57    16    18   ar
    58    76    71   am
    59    17    19   ar
    60    71    70    1
    61    73    70    1
    62    73    74    1
    63    18    19   ar
    64    70    69    1
    65    69    62   am
    66    67    66   ar
    67    62    63    2
    68    62    61    1
    69    64    65    1
    70    64    61    1
    71    66    65    1
    72    66    68   ar
    73    61    60    1
    74    43    44    1
    75    43    40    1
    76    45    44   ar
    77    45    47   ar
    78    44    46   ar
    79    39    40    1
    80    47    49   ar
    81    40    41    1
    82    46    48   ar
    83    60    52   am
    84    49    48   ar
    85    53    52    2
    86    52    51    1
    87    41    42    2
    88    51    50    1
    89    51    54    1
    90    57    55   ar
    91    57    59   ar
    92    54    55    1
    93    55    56   ar
    94    59    58   ar
    95    56    58   ar
