@<TRIPOS>MOLECULE
tmp/3cndA01.pdb
 195 190 0 0 0
SMALL
GASTEIGER

@<TRIPOS>ATOM
      1  N         52.8580  -58.2990   46.5950 N.3    58  TRP58      -0.1241
      2  CA        53.8480  -57.3080   46.1940 C.3    58  TRP58       0.1605
      3  C         55.3120  -57.7010   46.3030 C.2    58  TRP58       0.2264
      4  O         55.6710  -58.6700   46.9730 O.2    58  TRP58      -0.2867
      5  CB        53.6700  -56.0300   47.0300 C.3    58  TRP58       0.0550
      6  CG        52.4540  -55.2180   46.7190 C.ar   58  TRP58       0.0003
      7  CD1       52.3270  -54.2770   45.7400 C.ar   58  TRP58       0.0946
      8  CD2       51.1830  -55.2730   47.3870 C.ar   58  TRP58       0.0152
      9  NE1       51.0660  -53.7450   45.7560 N.ar   58  TRP58      -0.2442
     10  CE2       50.3420  -54.3370   46.7560 C.ar   58  TRP58       0.0810
     11  CE3       50.6770  -56.0250   48.4570 C.ar   58  TRP58       0.0012
     12  CZ2       49.0100  -54.1250   47.1560 C.ar   58  TRP58       0.0191
     13  CZ3       49.3550  -55.8190   48.8590 C.ar   58  TRP58       0.0001
     14  CH2       48.5380  -54.8730   48.2050 C.ar   58  TRP58       0.0015
     15  N         58.2530  -56.0340   47.8150 N.3    60  HIS60      -0.1241
     16  CA        58.4880  -54.8970   48.6970 C.3    60  HIS60       0.1621
     17  C         59.9340  -54.4520   48.5430 C.2    60  HIS60       0.2264
     18  O         60.7720  -55.2090   48.0320 O.2    60  HIS60      -0.2867
     19  CB        58.2440  -55.2750   50.1540 C.3    60  HIS60       0.0745
     20  CG        56.8200  -55.5960   50.4720 C.ar   60  HIS60       0.0817
     21  ND1       55.8010  -54.6770   50.3410 N.ar   60  HIS60      -0.2268
     22  CD2       56.2440  -56.7380   50.9210 C.ar   60  HIS60       0.1154
     23  CE1       54.6570  -55.2420   50.6930 C.ar   60  HIS60       0.1986
     24  NE2       54.8980  -56.4920   51.0480 N.ar   60  HIS60      -0.2212
     25  N         51.8450  -47.9910   43.6840 N.3    87  ASP87      -0.1239
     26  CA        51.7920  -47.1070   44.8380 C.3    87  ASP87       0.1674
     27  C         50.9090  -45.9370   44.3850 C.2    87  ASP87       0.2266
     28  O         50.9830  -45.5080   43.2380 O.2    87  ASP87      -0.2867
     29  CB        53.1960  -46.6240   45.2440 C.3    87  ASP87       0.1410
     30  CG        53.9670  -47.6550   46.0880 C.2    87  ASP87       0.3668
     31  OD1       53.3350  -48.4680   46.7920 O.co2  87  ASP87      -0.2456
     32  OD2       55.2190  -47.6340   46.0720 O.co2  87  ASP87      -0.2456
     33  N         46.7770  -42.4310   48.9540 N.3    90  PHE90      -0.1241
     34  CA        45.6940  -43.0830   49.6660 C.3    90  PHE90       0.1605
     35  C         44.4360  -42.2690   49.8910 C.2    90  PHE90       0.2264
     36  O         44.4830  -41.1000   50.2710 O.2    90  PHE90      -0.2867
     37  CB        46.1830  -43.6050   51.0140 C.3    90  PHE90       0.0534
     38  CG        46.8180  -44.9530   50.9420 C.ar   90  PHE90      -0.0203
     39  CD1       47.9730  -45.1570   50.2030 C.ar   90  PHE90      -0.0042
     40  CD2       46.2670  -46.0240   51.6240 C.ar   90  PHE90      -0.0042
     41  CE1       48.5760  -46.4130   50.1430 C.ar   90  PHE90      -0.0003
     42  CE2       46.8570  -47.2820   51.5720 C.ar   90  PHE90      -0.0003
     43  CZ        48.0150  -47.4750   50.8290 C.ar   90  PHE90      -0.0000
     44  N         47.2820  -53.4480   58.5900 N.3   166  LEU166     -0.1231
     45  CA        47.3130  -54.2790   57.4010 C.3   166  LEU166      0.1693
     46  C         48.7300  -54.5950   56.9140 C.2   166  LEU166      0.2592
     47  O         48.8870  -55.2700   55.9060 O.2   166  LEU166     -0.2718
     48  CB        46.4950  -53.6480   56.2680 C.3   166  LEU166      0.0284
     49  CG        44.9810  -53.5920   56.4750 C.3   166  LEU166      0.0019
     50  CD1       44.5310  -54.8350   57.2390 C.3   166  LEU166      0.0001
     51  CD2       44.6060  -52.3450   57.2400 C.3   166  LEU166      0.0001
     52  N         49.7570  -54.1090   57.6080 N.am  167  TRP167     -0.1962
     53  CA        51.1350  -54.4280   57.2210 C.3   167  TRP167      0.1771
     54  C         51.6460  -55.5820   58.0760 C.2   167  TRP167      0.2619
     55  O         52.5740  -56.3000   57.6820 O.2   167  TRP167     -0.2715
     56  CB        52.0870  -53.2350   57.4020 C.3   167  TRP167      0.0590
     57  CG        52.0980  -52.2810   56.2650 C.ar  167  TRP167      0.0006
     58  CD1       51.3440  -51.1520   56.1350 C.ar  167  TRP167      0.0946
     59  CD2       52.8920  -52.3740   55.0720 C.ar  167  TRP167      0.0152
     60  NE1       51.6150  -50.5350   54.9390 N.ar  167  TRP167     -0.2442
     61  CE2       52.5620  -51.2640   54.2640 C.ar  167  TRP167      0.0810
     62  CE3       53.8500  -53.2880   54.6090 C.ar  167  TRP167      0.0012
     63  CZ2       53.1570  -51.0420   53.0070 C.ar  167  TRP167      0.0191
     64  CZ3       54.4400  -53.0700   53.3640 C.ar  167  TRP167      0.0001
     65  CH2       54.0890  -51.9540   52.5760 C.ar  167  TRP167      0.0015
     66  N         51.0410  -55.7480   59.2540 N.am  168  HIS168     -0.1973
     67  CA        51.4160  -56.8170   60.1880 C.3   168  HIS168      0.1656
     68  C         50.3500  -57.8920   60.2930 C.2   168  HIS168      0.2291
     69  O         50.6460  -59.0170   60.6860 O.2   168  HIS168     -0.2864
     70  CB        51.6370  -56.2420   61.5790 C.3   168  HIS168      0.0771
     71  CG        52.7490  -55.2530   61.6450 C.ar  168  HIS168      0.0820
     72  ND1       54.0640  -55.6280   61.7930 N.ar  168  HIS168     -0.2267
     73  CD2       52.7450  -53.9010   61.5720 C.ar  168  HIS168      0.1154
     74  CE1       54.8230  -54.5470   61.8110 C.ar  168  HIS168      0.1986
     75  NE2       54.0470  -53.4860   61.6810 N.ar  168  HIS168     -0.2212
     76  N         57.9930  -52.4800   66.9470 N.3   179  ASP179     -0.1239
     77  CA        58.1680  -53.0340   65.6030 C.3   179  ASP179      0.1674
     78  C         57.2110  -52.4050   64.5860 C.2   179  ASP179      0.2266
     79  O         57.4620  -52.4390   63.3850 O.2   179  ASP179     -0.2867
     80  CB        57.9730  -54.5600   65.6320 C.3   179  ASP179      0.1410
     81  CG        58.3020  -55.2270   64.2960 C.2   179  ASP179      0.3668
     82  OD1       59.5020  -55.3370   63.9410 O.co2 179  ASP179     -0.2456
     83  OD2       57.3500  -55.6380   63.5980 O.co2 179  ASP179     -0.2456
     84  N         58.6390  -49.6090   60.4300 N.3   182  PHE182     -0.1241
     85  CA        59.8370  -50.2290   59.8950 C.3   182  PHE182      0.1605
     86  C         60.2230  -49.6070   58.5570 C.2   182  PHE182      0.2264
     87  O         59.5080  -48.7560   58.0230 O.2   182  PHE182     -0.2867
     88  CB        59.6930  -51.7670   59.7870 C.3   182  PHE182      0.0534
     89  CG        58.5260  -52.2410   58.9590 C.ar  182  PHE182     -0.0203
     90  CD1       57.3890  -52.7310   59.5830 C.ar  182  PHE182     -0.0042
     91  CD2       58.5380  -52.1650   57.5720 C.ar  182  PHE182     -0.0042
     92  CE1       56.2800  -53.1390   58.8450 C.ar  182  PHE182     -0.0003
     93  CE2       57.4300  -52.5700   56.8200 C.ar  182  PHE182     -0.0003
     94  CZ        56.3000  -53.0580   57.4640 C.ar  182  PHE182     -0.0000
     95  N         60.8340  -48.9720   54.6950 N.3   184  HIS184     -0.1241
     96  CA        60.1260  -49.1410   53.4270 C.3   184  HIS184      0.1621
     97  C         61.2310  -48.7250   52.4240 C.2   184  HIS184      0.2264
     98  O         61.4360  -47.5350   52.1740 O.2   184  HIS184     -0.2867
     99  CB        58.9410  -48.1540   53.4590 C.3   184  HIS184      0.0745
    100  CG        58.0390  -48.1710   52.2560 C.ar  184  HIS184      0.0817
    101  ND1       56.9360  -48.9980   52.1610 N.ar  184  HIS184     -0.2268
    102  CD2       57.9900  -47.3570   51.1700 C.ar  184  HIS184      0.1154
    103  CE1       56.2460  -48.6870   51.0760 C.ar  184  HIS184      0.1986
    104  NE2       56.8650  -47.6940   50.4580 N.ar  184  HIS184     -0.2212
    105  N         56.5840  -50.1930   45.9830 N.3   188  ASN188     -0.1240
    106  CA        56.1770  -51.5880   45.9080 C.3   188  ASN188      0.1653
    107  C         55.7410  -51.8890   44.4870 C.2   188  ASN188      0.2266
    108  O         55.2270  -51.0170   43.7930 O.2   188  ASN188     -0.2867
    109  CB        55.0090  -51.8470   46.8550 C.3   188  ASN188      0.1155
    110  CG        55.3610  -51.5430   48.2710 C.2   188  ASN188      0.2627
    111  OD1       56.1190  -52.2800   48.8970 O.2   188  ASN188     -0.2716
    112  ND2       54.8430  -50.4350   48.7890 N.am  188  ASN188     -0.0877
    113  N         47.2570  -61.8360   58.4360 N.3   287  LEU287     -0.1245
    114  CA        46.7780  -60.9920   57.3420 C.3   287  LEU287      0.1561
    115  C         45.8680  -61.8700   56.4760 C.2   287  LEU287      0.2260
    116  O         46.2120  -63.0170   56.1660 O.2   287  LEU287     -0.2867
    117  CB        47.9580  -60.4770   56.5110 C.3   287  LEU287      0.0270
    118  CG        47.6660  -59.4220   55.4390 C.3   287  LEU287      0.0019
    119  CD1       47.0740  -58.1780   56.1040 C.3   287  LEU287      0.0001
    120  CD2       48.9580  -59.0640   54.6720 C.3   287  LEU287      0.0001
    121  N         42.6510  -61.9570   53.1360 N.3   289  LYS289     -0.1245
    122  CA        42.1470  -61.2920   51.9380 C.3   289  LYS289      0.1561
    123  C         40.7660  -61.7310   51.4530 C.2   289  LYS289      0.2260
    124  O         40.3880  -62.9010   51.5260 O.2   289  LYS289     -0.2867
    125  CB        43.1140  -61.4850   50.7700 C.3   289  LYS289      0.0271
    126  CG        44.4110  -60.7140   50.8350 C.3   289  LYS289      0.0035
    127  CD        45.2390  -61.0140   49.5860 C.3   289  LYS289      0.0206
    128  CE        46.4810  -60.1440   49.4990 C.3   289  LYS289      0.1093
    129  NZ        47.3390  -60.5810   48.3680 N.3   289  LYS289     -0.1314
    130  N         44.3650  -47.1510   45.8860 N.3   305  LYS305     -0.1245
    131  CA        44.5220  -47.4170   47.3150 C.3   305  LYS305      0.1561
    132  C         43.4350  -46.7320   48.1200 C.2   305  LYS305      0.2260
    133  O         43.3850  -45.4960   48.2010 O.2   305  LYS305     -0.2867
    134  CB        45.8830  -46.9320   47.8080 C.3   305  LYS305      0.0271
    135  CG        47.0390  -47.6110   47.1440 C.3   305  LYS305      0.0035
    136  CD        47.1860  -49.0290   47.6190 C.3   305  LYS305      0.0206
    137  CE        48.1990  -49.7820   46.7690 C.3   305  LYS305      0.1093
    138  NZ        47.6760  -49.9660   45.3870 N.3   305  LYS305     -0.1314
    139  N         41.6860  -52.2720   54.2700 N.3   347  PHE347     -0.1241
    140  CA        42.5270  -51.7910   53.1740 C.3   347  PHE347      0.1605
    141  C         42.0690  -52.3500   51.8150 C.2   347  PHE347      0.2264
    142  O         42.1690  -53.5600   51.5730 O.2   347  PHE347     -0.2867
    143  CB        43.9860  -52.1860   53.4790 C.3   347  PHE347      0.0534
    144  CG        44.9600  -51.8560   52.3880 C.ar  347  PHE347     -0.0203
    145  CD1       45.2130  -50.5450   52.0300 C.ar  347  PHE347     -0.0042
    146  CD2       45.6280  -52.8670   51.7120 C.ar  347  PHE347     -0.0042
    147  CE1       46.1210  -50.2420   51.0060 C.ar  347  PHE347     -0.0003
    148  CE2       46.5370  -52.5700   50.6860 C.ar  347  PHE347     -0.0003
    149  CZ        46.7820  -51.2520   50.3350 C.ar  347  PHE347     -0.0000
    150  N         42.3760  -56.3980   52.1950 N.3   363  LEU363     -0.1245
    151  CA        43.2260  -57.0000   53.2140 C.3   363  LEU363      0.1561
    152  C         42.5680  -56.8000   54.5850 C.2   363  LEU363      0.2260
    153  O         41.9420  -55.7640   54.8300 O.2   363  LEU363     -0.2867
    154  CB        44.6060  -56.3320   53.1860 C.3   363  LEU363      0.0270
    155  CG        45.7380  -56.9030   52.3130 C.3   363  LEU363      0.0019
    156  CD1       45.3480  -56.9320   50.8460 C.3   363  LEU363      0.0001
    157  CD2       46.9900  -56.0460   52.5080 C.3   363  LEU363      0.0001
    158  N         52.1720  -64.6190   58.4750 N.3   438  TYR438     -0.1227
    159  CA        53.6230  -64.5600   58.5900 C.3   438  TYR438      0.1736
    160  C         54.0050  -64.0130   59.9610 C.2   438  TYR438      0.2596
    161  O         53.1310  -63.5910   60.7310 O.2   438  TYR438     -0.2718
    162  CB        54.2150  -63.6660   57.4870 C.3   438  TYR438      0.0548
    163  CG        53.5100  -62.3310   57.3180 C.ar  438  TYR438     -0.0200
    164  CD1       52.3830  -62.2180   56.5090 C.ar  438  TYR438     -0.0009
    165  CD2       53.9620  -61.1870   57.9770 C.ar  438  TYR438     -0.0009
    166  CE1       51.7270  -61.0140   56.3570 C.ar  438  TYR438      0.0417
    167  CE2       53.3000  -59.9670   57.8270 C.ar  438  TYR438      0.0417
    168  CZ        52.1840  -59.8970   57.0150 C.ar  438  TYR438      0.1957
    169  OH        51.5020  -58.7200   56.8730 O.3   438  TYR438     -0.2866
    170  N         55.3040  -64.0300   60.2570 N.am  439  SER439     -0.1938
    171  CA        55.8180  -63.5400   61.5310 C.3   439  SER439      0.2055
    172  C         55.3590  -62.1250   61.8150 C.2   439  SER439      0.2642
    173  O         55.2290  -61.3080   60.8980 O.2   439  SER439     -0.2714
    174  CB        57.3360  -63.5410   61.5250 C.3   439  SER439      0.2130
    175  OG        57.8320  -64.7840   61.1070 O.3   439  SER439     -0.2179
    176  N         55.1250  -61.8430   63.0930 N.am  440  ALA440     -0.1977
    177  CA        54.7000  -60.5240   63.5480 C.3   440  ALA440      0.1597
    178  C         55.1810  -60.3540   65.0000 C.2   440  ALA440      0.2287
    179  O         55.7830  -61.2740   65.5560 O.2   440  ALA440     -0.2864
    180  CB        53.1830  -60.3930   63.4540 C.3   440  ALA440      0.0319
    181  N         62.5570  -59.8640   56.2490 N.3   474  ALA474     -0.1231
    182  CA        61.8520  -60.6930   57.2070 C.3   474  ALA474      0.1694
    183  C         60.3620  -60.6680   56.8990 C.2   474  ALA474      0.2593
    184  O         59.7670  -59.6060   56.7090 O.2   474  ALA474     -0.2718
    185  CB        62.1050  -60.1900   58.6150 C.3   474  ALA474      0.0304
    186  N         59.7600  -61.8480   56.8450 N.am  475  GLY475     -0.1942
    187  CA        58.3430  -61.9340   56.5580 C.3   475  GLY475      0.2014
    188  C         57.9520  -61.7100   55.1030 C.2   475  GLY475      0.2639
    189  O         56.7830  -61.8510   54.7610 O.2   475  GLY475     -0.2714
    190  N         58.9090  -61.3770   54.2410 N.am  476  CYS476     -0.1967
    191  CA        58.5960  -61.1270   52.8370 C.3   476  CYS476      0.1712
    192  C         58.9880  -62.2700   51.9080 C.2   476  CYS476      0.2296
    193  O         59.7960  -63.1230   52.2610 O.2   476  CYS476     -0.2864
    194  CB        59.2820  -59.8350   52.3760 C.3   476  CYS476      0.0983
    195  SG        58.8760  -58.3860   53.3880 S.3   476  CYS476     -0.0798
@<TRIPOS>BOND
     1    28    27    2
     2    25    26    1
     3   108   107    2
     4    27    26    1
     5   107   106    1
     6    26    29    1
     7    29    30    1
     8   138   137    1
     9     7     9   ar
    10     7     6   ar
    11     9    10   ar
    12   130   131    1
    13   106   105    1
    14   106   109    1
    15    32    30   ar
    16    30    31   ar
    17     2     3    1
    18     2     1    1
    19     2     5    1
    20     3     4    2
    21     6     5    1
    22     6     8   ar
    23    10    12   ar
    24    10     8   ar
    25   137   136    1
    26   109   110    1
    27   135   136    1
    28   135   134    1
    29    12    14   ar
    30   131   134    1
    31   131   132    1
    32     8    11   ar
    33    15    16    1
    34    18    17    2
    35   132   133    2
    36    14    13   ar
    37   110   112   am
    38   110   111    2
    39   129   128    1
    40    11    13   ar
    41    17    16    1
    42    16    19    1
    43    33    34    1
    44   128   127    1
    45   127   126    1
    46    34    35    1
    47    34    37    1
    48    35    36    2
    49    41    39   ar
    50    41    43   ar
    51    19    20    1
    52    39    38   ar
    53   149   148   ar
    54   149   147   ar
    55    21    20   ar
    56    21    23   ar
    57   104   103   ar
    58   104   102   ar
    59    20    22   ar
    60   148   146   ar
    61    23    24   ar
    62   125   126    1
    63   125   122    1
    64    43    42   ar
    65   156   155    1
    66    22    24   ar
    67    38    37    1
    68    38    40   ar
    69   147   145   ar
    70   103   101   ar
    71   102   100   ar
    72   123   124    2
    73   123   122    1
    74    42    40   ar
    75   142   141    2
    76   146   144   ar
    77   141   140    1
    78   192   193    2
    79   192   191    1
    80   122   121    1
    81   145   144   ar
    82   101   100   ar
    83    98    97    2
    84   150   151    1
    85   100    99    1
    86   155   157    1
    87   155   154    1
    88   194   191    1
    89   194   195    1
    90   144   143    1
    91    97    96    1
    92    65    63   ar
    93    65    64   ar
    94   191   190    1
    95    63    61   ar
    96   140   143    1
    97   140   139    1
    98   154   151    1
    99   151   152    1
   100    64    62   ar
   101    96    99    1
   102    96    95    1
   103   190   188   am
   104    61    60   ar
   105    61    59   ar
   106   152   153    2
   107    62    59   ar
   108   120   118    1
   109   189   188    2
   110    60    58   ar
   111    59    57   ar
   112   188   187    1
   113   118   119    1
   114   118   117    1
   115    47    46    2
   116    58    57   ar
   117   116   115    2
   118   181   182    1
   119    57    56    1
   120    48    49    1
   121    48    45    1
   122   166   164   ar
   123   166   168   ar
   124    49    50    1
   125    49    51    1
   126   115   114    1
   127   164   163   ar
   128   117   114    1
   129   187   186    1
   130   184   183    2
   131    93    94   ar
   132    93    91   ar
   133   186   183   am
   134   169   168    1
   135   183   182    1
   136    46    45    1
   137    46    52   am
   138   168   167   ar
   139   182   185    1
   140    53    56    1
   141    53    52    1
   142    53    54    1
   143   163   162    1
   144   163   165   ar
   145   114   113    1
   146    45    44    1
   147    94    92   ar
   148   162   159    1
   149    91    89   ar
   150    55    54    2
   151   167   165   ar
   152    87    86    2
   153    54    66   am
   154   158   159    1
   155    86    85    1
   156   159   160    1
   157    92    90   ar
   158    89    90   ar
   159    89    88    1
   160    66    67    1
   161    88    85    1
   162    85    84    1
   163   160   170   am
   164   160   161    2
   165    67    68    1
   166    67    70    1
   167   170   171    1
   168    68    69    2
   169   173   172    2
   170   175   174    1
   171   174   171    1
   172   171   172    1
   173    73    71   ar
   174    73    75   ar
   175    70    71    1
   176    71    72   ar
   177    75    74   ar
   178    72    74   ar
   179   172   176   am
   180   176   177    1
   181    79    78    2
   182   180   177    1
   183   177   178    1
   184    83    81   ar
   185    82    81   ar
   186    81    80    1
   187    78    77    1
   188   178   179    2
   189    77    80    1
   190    77    76    1
