@<TRIPOS>MOLECULE
tmp/3cnlA00.pdb
 124 120 0 0 0
SMALL
GASTEIGER

@<TRIPOS>ATOM
      1  N         16.4420   -7.0340   27.0600 N.3    46  ASN46      -0.1225
      2  CA        15.6610   -8.2590   27.0640 C.3    46  ASN46       0.1785
      3  C         15.9870   -9.1630   25.8570 C.2    46  ASN46       0.2597
      4  O         16.6440   -8.7170   24.9260 O.2    46  ASN46      -0.2718
      5  CB        14.1770   -7.8910   27.0690 C.3    46  ASN46       0.1169
      6  CG        13.3160   -8.9900   27.5700 C.2    46  ASN46       0.2627
      7  OD1       13.7630   -9.8130   28.3370 O.2    46  ASN46      -0.2716
      8  ND2       12.0570   -9.0120   27.1500 N.am   46  ASN46      -0.0877
      9  N         15.4990  -10.4030   25.8850 N.am   47  LYS47      -0.1980
     10  CA        15.6220  -11.3710   24.7730 C.3    47  LYS47       0.1596
     11  C         17.0850  -11.7450   24.4500 C.2    47  LYS47       0.2287
     12  O         17.4130  -12.0150   23.2800 O.2    47  LYS47      -0.2864
     13  CB        14.8950  -10.8840   23.4920 C.3    47  LYS47       0.0298
     14  CG        13.3970  -10.5160   23.6660 C.3    47  LYS47       0.0038
     15  CD        12.6940  -10.2320   22.3430 C.3    47  LYS47       0.0206
     16  CE        11.2530   -9.7800   22.6010 C.3    47  LYS47       0.1093
     17  NZ        10.5030   -9.5820   21.3260 N.3    47  LYS47      -0.1314
     18  N         18.5320  -14.3330   24.7850 N.3    49  ASP49      -0.1225
     19  CA        18.5630  -15.7010   24.2720 C.3    49  ASP49       0.1805
     20  C         18.6050  -15.7860   22.7360 C.2    49  ASP49       0.2597
     21  O         19.1250  -16.7620   22.1830 O.2    49  ASP49      -0.2718
     22  CB        17.4060  -16.5120   24.8490 C.3    49  ASP49       0.1424
     23  CG        16.0640  -15.9660   24.4430 C.2    49  ASP49       0.3668
     24  OD1       15.8520  -14.7650   24.6260 O.co2  49  ASP49      -0.2456
     25  OD2       15.2250  -16.7350   23.9340 O.co2  49  ASP49      -0.2456
     26  N         18.0970  -14.7510   22.0580 N.am   50  ILE50      -0.1980
     27  CA        18.0870  -14.6900   20.5940 C.3    50  ILE50       0.1595
     28  C         19.0130  -13.5810   20.0520 C.2    50  ILE50       0.2287
     29  O         19.0100  -13.2870   18.8420 O.2    50  ILE50      -0.2864
     30  CB        16.6470  -14.5730   20.0180 C.3    50  ILE50       0.0276
     31  CG1       15.9010  -13.3340   20.5610 C.3    50  ILE50       0.0022
     32  CG2       15.8460  -15.8730   20.2890 C.3    50  ILE50       0.0022
     33  CD1       14.5150  -13.1590   20.0090 C.3    50  ILE50       0.0001
     34  N         16.0180  -12.6480   29.9180 N.3    74  HIS74      -0.1226
     35  CA        15.2280  -13.2700   28.8640 C.3    74  HIS74       0.1752
     36  C         14.0660  -14.0300   29.4870 C.2    74  HIS74       0.2595
     37  O         14.0520  -14.2690   30.6910 O.2    74  HIS74      -0.2718
     38  CB        16.0980  -14.1550   27.9480 C.3    74  HIS74       0.0759
     39  CG        16.5500  -15.4470   28.5700 C.ar   74  HIS74       0.0818
     40  ND1       17.7310  -15.5710   29.2690 N.ar   74  HIS74      -0.2268
     41  CD2       15.9930  -16.6810   28.5600 C.ar   74  HIS74       0.1154
     42  CE1       17.8700  -16.8170   29.6840 C.ar   74  HIS74       0.1986
     43  NE2       16.8270  -17.5090   29.2680 N.ar   74  HIS74      -0.2212
     44  N         13.0830  -14.3450   28.6510 N.am   75  LYS75      -0.1980
     45  CA        11.8310  -15.0480   28.9750 C.3    75  LYS75       0.1596
     46  C         12.0330  -16.2300   29.9270 C.2    75  LYS75       0.2287
     47  O         11.2430  -16.4560   30.8530 O.2    75  LYS75      -0.2864
     48  CB        11.3250  -15.6250   27.6520 C.3    75  LYS75       0.0298
     49  CG         9.8700  -15.5820   27.3780 C.3    75  LYS75       0.0038
     50  CD         9.6260  -16.2280   26.0170 C.3    75  LYS75       0.0206
     51  CE         8.2510  -15.9100   25.4680 C.3    75  LYS75       0.1093
     52  NZ         8.0130  -16.5720   24.1240 N.3    75  LYS75      -0.1314
     53  N          6.7650   -1.0570   21.4070 N.3   100  PRO100     -0.2102
     54  CA         6.0600   -2.3100   21.2170 C.3   100  PRO100      0.1504
     55  C          6.9790   -3.5210   21.0420 C.2   100  PRO100      0.2576
     56  O          8.0670   -3.3940   20.4640 O.2   100  PRO100     -0.2718
     57  CB         5.2680   -2.0600   19.9280 C.3   100  PRO100      0.0282
     58  CG         5.0740   -0.5770   19.8750 C.3   100  PRO100      0.0208
     59  CD         6.3370   -0.0220   20.4370 C.3   100  PRO100      0.0893
     60  N          6.5410   -4.6570   21.5850 N.am  101  ASN101     -0.1961
     61  CA         7.0760   -6.0020   21.2980 C.3   101  ASN101      0.1819
     62  C          8.3130   -6.4350   22.0680 C.2   101  ASN101      0.2622
     63  O          8.7770   -7.5700   21.9020 O.2   101  ASN101     -0.2715
     64  CB         7.3300   -6.1980   19.7790 C.3   101  ASN101      0.1195
     65  CG         7.3430   -7.6490   19.3880 C.2   101  ASN101      0.2630
     66  OD1        6.4120   -8.3620   19.7050 O.2   101  ASN101     -0.2716
     67  ND2        8.4210   -8.1080   18.7210 N.am  101  ASN101     -0.0877
     68  N          8.8340   -5.5680   22.9280 N.am  102  THR102     -0.1937
     69  CA        10.1460   -5.8270   23.5830 C.3   102  THR102      0.2028
     70  C         10.0820   -6.8160   24.7410 C.2   102  THR102      0.2643
     71  O         11.1190   -7.1950   25.2720 O.2   102  THR102     -0.2714
     72  CB        10.7770   -4.5610   24.1230 C.3   102  THR102      0.1808
     73  OG1        9.8690   -3.9540   25.0590 O.3   102  THR102     -0.2208
     74  CG2       11.0900   -3.5810   22.9860 C.3   102  THR102      0.0379
     75  N          8.8720   -7.2050   25.1480 N.am  103  GLY103     -0.1939
     76  CA         8.7010   -8.2570   26.1680 C.3   103  GLY103      0.2014
     77  C          8.0700   -7.8180   27.4910 C.2   103  GLY103      0.2639
     78  O          8.2250   -8.5060   28.5050 O.2   103  GLY103     -0.2714
     79  N          7.3370   -6.7050   27.4730 N.am  104  LYS104     -0.1963
     80  CA         6.8650   -6.0570   28.7020 C.3   104  LYS104      0.1728
     81  C          5.7840   -6.8490   29.4310 C.2   104  LYS104      0.2617
     82  O          5.8250   -6.9610   30.6660 O.2   104  LYS104     -0.2715
     83  CB         6.3860   -4.6340   28.4050 C.3   104  LYS104      0.0311
     84  CG         7.4510   -3.7650   27.7250 C.3   104  LYS104      0.0038
     85  CD         6.9440   -2.3620   27.3610 C.3   104  LYS104      0.0206
     86  CE         5.7820   -2.3880   26.3910 C.3   104  LYS104      0.1093
     87  NZ         6.1430   -3.0840   25.1270 N.3   104  LYS104     -0.1314
     88  N          4.8320   -7.4000   28.6710 N.am  105  SER105     -0.1936
     89  CA         3.7420   -8.2090   29.2270 C.3   105  SER105      0.2055
     90  C          4.2740   -9.5080   29.8250 C.2   105  SER105      0.2643
     91  O          3.8440   -9.9340   30.8990 O.2   105  SER105     -0.2714
     92  CB         2.7150   -8.5290   28.1510 C.3   105  SER105      0.2130
     93  OG         2.1200   -7.3280   27.6940 O.3   105  SER105     -0.2179
     94  N          5.2330  -10.1030   29.1240 N.am  106  THR106     -0.1950
     95  CA         5.9170  -11.2950   29.5630 C.3   106  THR106      0.1897
     96  C          6.6630  -11.0620   30.8810 C.2   106  THR106      0.2313
     97  O          6.5740  -11.8790   31.8020 O.2   106  THR106     -0.2863
     98  CB         6.8500  -11.8010   28.4350 C.3   106  THR106      0.1794
     99  OG1        6.0500  -12.0680   27.2670 O.3   106  THR106     -0.2208
    100  CG2        7.6100  -13.0780   28.8530 C.3   106  THR106      0.0378
    101  N          1.9820   -2.1870   31.3470 N.3   134  PRO134     -0.2116
    102  CA         3.1360   -1.4270   30.8990 C.3   134  PRO134      0.1372
    103  C          2.7280   -0.1550   30.1690 C.2   134  PRO134      0.2244
    104  O          1.6140   -0.0660   29.6480 O.2   134  PRO134     -0.2868
    105  CB         3.8330   -2.3920   29.9330 C.3   134  PRO134      0.0268
    106  CG         2.7500   -3.2060   29.3810 C.3   134  PRO134      0.0207
    107  CD         1.6970   -3.3310   30.4620 C.3   134  PRO134      0.0892
    108  N          3.3870    1.9110   26.8450 N.3   136  ILE136     -0.1245
    109  CA         3.8940    1.5830   25.5150 C.3   136  ILE136      0.1561
    110  C          4.3340    2.8810   24.8460 C.2   136  ILE136      0.2260
    111  O          3.5490    3.8200   24.7250 O.2   136  ILE136     -0.2867
    112  CB         2.8280    0.8520   24.6760 C.3   136  ILE136      0.0252
    113  CG1        2.3610   -0.4120   25.4040 C.3   136  ILE136      0.0019
    114  CG2        3.3550    0.5340   23.2700 C.3   136  ILE136      0.0019
    115  CD1        1.0800   -1.0240   24.8590 C.3   136  ILE136      0.0001
    116  N         11.3820  -12.9290   16.0130 N.3   219  GLN219     -0.1245
    117  CA        11.2050  -14.0700   16.9040 C.3   219  GLN219      0.1566
    118  C         12.4970  -14.8490   17.1660 C.2   219  GLN219      0.2260
    119  O         12.5140  -15.7610   17.9790 O.2   219  GLN219     -0.2867
    120  CB        10.1230  -14.9980   16.3270 C.3   219  GLN219      0.0367
    121  CG         8.7340  -14.3420   16.2750 C.3   219  GLN219      0.0905
    122  CD         7.6910  -15.1490   15.5260 C.2   219  GLN219      0.2608
    123  OE1        8.0190  -15.9870   14.6940 O.2   219  GLN219     -0.2717
    124  NE2        6.4130  -14.8840   15.8090 N.am  219  GLN219     -0.0878
@<TRIPOS>BOND
     1   123   122    2
     2   122   124   am
     3   122   121    1
     4   116   117    1
     5   121   120    1
     6   120   117    1
     7   117   118    1
     8   118   119    2
     9    67    65   am
    10    29    28    2
    11    65    66    2
    12    65    64    1
    13    64    61    1
    14    58    57    1
    15    58    59    1
    16    57    54    1
    17    33    31    1
    18    30    32    1
    19    30    31    1
    20    30    27    1
    21    28    27    1
    22    59    53    1
    23    56    55    2
    24    27    26    1
    25    55    54    1
    26    55    60   am
    27    54    53    1
    28    61    60    1
    29    61    62    1
    30    17    16    1
    31    63    62    2
    32    26    20   am
    33    62    68   am
    34    21    20    2
    35    15    16    1
    36    15    14    1
    37    20    19    1
    38    68    69    1
    39    74    72    1
    40   114   112    1
    41    12    11    2
    42    13    14    1
    43    13    10    1
    44    69    72    1
    45    69    70    1
    46    25    23   ar
    47    72    73    1
    48    52    51    1
    49    19    18    1
    50    19    22    1
    51    23    24   ar
    52    23    22    1
    53    11    10    1
    54   112   113    1
    55   112   109    1
    56   111   110    2
    57    70    75   am
    58    70    71    2
    59    10     9    1
    60   110   109    1
    61   115   113    1
    62     4     3    2
    63    87    86    1
    64    75    76    1
    65    51    50    1
    66   109   108    1
    67     3     9   am
    68     3     2    1
    69    50    49    1
    70    76    77    1
    71    86    85    1
    72     1     2    1
    73     2     5    1
    74     5     6    1
    75     8     6   am
    76    99    98    1
    77    85    84    1
    78    49    48    1
    79    79    77   am
    80    79    80    1
    81    77    78    2
    82     6     7    2
    83    48    45    1
    84    93    92    1
    85    84    83    1
    86    38    39    1
    87    38    35    1
    88    92    89    1
    89    83    80    1
    90    98   100    1
    91    98    95    1
    92    41    39   ar
    93    41    43   ar
    94    39    40   ar
    95    44    45    1
    96    44    36   am
    97    88    89    1
    98    88    81   am
    99    80    81    1
   100    35    36    1
   101    35    34    1
   102    45    46    1
   103    94    95    1
   104    94    90   am
   105    89    90    1
   106    43    42   ar
   107    40    42   ar
   108   106   105    1
   109   106   107    1
   110    81    82    2
   111    36    37    2
   112    95    96    1
   113   104   103    2
   114    90    91    2
   115    46    47    2
   116   105   102    1
   117   103   102    1
   118   107   101    1
   119    96    97    2
   120   102   101    1
