@<TRIPOS>MOLECULE
tmp/3cnnA00.pdb
 124 120 0 0 0
SMALL
GASTEIGER

@<TRIPOS>ATOM
      1  N          1.1390   -7.1460  -27.1090 N.3    42  ASN42      -0.1225
      2  CA         1.9370   -8.3510  -27.0280 C.3    42  ASN42       0.1785
      3  C          1.5890   -9.2180  -25.8020 C.2    42  ASN42       0.2597
      4  O          0.9290   -8.7570  -24.8780 O.2    42  ASN42      -0.2718
      5  CB         3.4210   -7.9650  -27.0360 C.3    42  ASN42       0.1169
      6  CG         4.2990   -9.0680  -27.5280 C.2    42  ASN42       0.2627
      7  OD1        3.8810   -9.8710  -28.3330 O.2    42  ASN42      -0.2716
      8  ND2        5.5270   -9.1070  -27.0560 N.am   42  ASN42      -0.0877
      9  N          2.0190  -10.4780  -25.8410 N.am   43  LYS43      -0.1980
     10  CA         1.9340  -11.4200  -24.7260 C.3    43  LYS43       0.1596
     11  C          0.4930  -11.7890  -24.3760 C.2    43  LYS43       0.2287
     12  O          0.1600  -11.9050  -23.1890 O.2    43  LYS43      -0.2864
     13  CB         2.6570  -10.8730  -23.4810 C.3    43  LYS43       0.0298
     14  CG         4.1240  -10.5350  -23.6750 C.3    43  LYS43       0.0038
     15  CD         4.7880  -10.2250  -22.3320 C.3    43  LYS43       0.0206
     16  CE         6.2780   -9.9890  -22.4680 C.3    43  LYS43       0.1093
     17  NZ         6.9010   -9.4330  -21.2270 N.3    43  LYS43      -0.1314
     18  N         -0.8740  -14.4050  -24.6700 N.3    45  ASP45      -0.1225
     19  CA        -0.8530  -15.7820  -24.2040 C.3    45  ASP45       0.1805
     20  C         -0.8990  -15.8700  -22.6750 C.2    45  ASP45       0.2597
     21  O         -1.3960  -16.8540  -22.1170 O.2    45  ASP45      -0.2718
     22  CB         0.3600  -16.5400  -24.7760 C.3    45  ASP45       0.1424
     23  CG         1.6850  -15.8950  -24.4200 C.2    45  ASP45       0.3668
     24  OD1        1.7720  -14.6620  -24.5250 O.co2  45  ASP45      -0.2456
     25  OD2        2.6400  -16.6150  -24.0300 O.co2  45  ASP45      -0.2456
     26  N         -0.3930  -14.8310  -22.0080 N.am   46  ILE46      -0.1980
     27  CA        -0.3820  -14.7790  -20.5460 C.3    46  ILE46       0.1595
     28  C         -1.3110  -13.6890  -19.9980 C.2    46  ILE46       0.2287
     29  O         -1.2340  -13.3350  -18.8200 O.2    46  ILE46      -0.2864
     30  CB         1.0600  -14.6460  -19.9840 C.3    46  ILE46       0.0276
     31  CG1        1.7460  -13.3670  -20.5100 C.3    46  ILE46       0.0022
     32  CG2        1.8700  -15.9140  -20.3010 C.3    46  ILE46       0.0022
     33  CD1        3.0680  -13.0710  -19.8790 C.3    46  ILE46       0.0001
     34  N          1.7010  -12.8040  -29.8430 N.3    70  HIS70      -0.1226
     35  CA         2.5750  -13.3550  -28.8090 C.3    70  HIS70       0.1752
     36  C          3.7110  -14.1620  -29.4620 C.2    70  HIS70       0.2595
     37  O          3.6190  -14.5150  -30.6230 O.2    70  HIS70      -0.2718
     38  CB         1.7750  -14.2210  -27.8210 C.3    70  HIS70       0.0759
     39  CG         1.1650  -15.4440  -28.4360 C.ar   70  HIS70       0.0818
     40  ND1        1.7490  -16.6920  -28.3540 N.ar   70  HIS70      -0.2268
     41  CD2        0.0190  -15.6120  -29.1400 C.ar   70  HIS70       0.1154
     42  CE1        0.9950  -17.5700  -28.9920 C.ar   70  HIS70       0.1986
     43  NE2       -0.0600  -16.9410  -29.4740 N.ar   70  HIS70      -0.2212
     44  N          4.7780  -14.4100  -28.7080 N.am   71  LYS71      -0.1980
     45  CA         5.8980  -15.2930  -29.0810 C.3    71  LYS71       0.1596
     46  C          5.5340  -16.4420  -30.0300 C.2    71  LYS71       0.2287
     47  O          6.1110  -16.5670  -31.1090 O.2    71  LYS71      -0.2864
     48  CB         6.4830  -15.9320  -27.8170 C.3    71  LYS71       0.0298
     49  CG         7.7250  -15.2970  -27.2810 C.3    71  LYS71       0.0038
     50  CD         8.6080  -16.3090  -26.5500 C.3    71  LYS71       0.0206
     51  CE         8.0360  -16.7840  -25.2050 C.3    71  LYS71       0.1093
     52  NZ         7.0030  -17.8810  -25.2930 N.3    71  LYS71      -0.1314
     53  N         10.7780   -0.8660  -21.5400 N.3    96  PRO96      -0.2102
     54  CA        11.5170   -2.1210  -21.4020 C.3    96  PRO96       0.1504
     55  C         10.6340   -3.3630  -21.2230 C.2    96  PRO96       0.2576
     56  O          9.5260   -3.2670  -20.6830 O.2    96  PRO96      -0.2718
     57  CB        12.3510   -1.8950  -20.1310 C.3    96  PRO96       0.0282
     58  CG        12.5410   -0.4050  -20.0600 C.3    96  PRO96       0.0208
     59  CD        11.2310    0.1510  -20.5660 C.3    96  PRO96       0.0893
     60  N         11.1440   -4.5020  -21.6910 N.am   97  ASN97      -0.1961
     61  CA        10.6230   -5.8420  -21.3870 C.3    97  ASN97       0.1819
     62  C          9.3670   -6.2980  -22.1480 C.2    97  ASN97       0.2622
     63  O          8.9280   -7.4310  -21.9760 O.2    97  ASN97      -0.2715
     64  CB        10.4140   -6.0020  -19.8670 C.3    97  ASN97       0.1195
     65  CG        10.3350   -7.4570  -19.4440 C.2    97  ASN97       0.2630
     66  OD1       11.2200   -8.2430  -19.7490 O.2    97  ASN97      -0.2716
     67  ND2        9.2700   -7.8190  -18.7490 N.am   97  ASN97      -0.0877
     68  N          8.7960   -5.4390  -22.9930 N.am   98  THR98      -0.1937
     69  CA         7.5120   -5.7500  -23.6540 C.3    98  THR98       0.2028
     70  C          7.5930   -6.7860  -24.7900 C.2    98  THR98       0.2643
     71  O          6.5550   -7.2450  -25.3210 O.2    98  THR98      -0.2714
     72  CB         6.7920   -4.4820  -24.0950 C.3    98  THR98       0.1808
     73  OG1        7.5980   -3.7970  -25.0750 O.3    98  THR98      -0.2208
     74  CG2        6.5660   -3.5660  -22.8800 C.3    98  THR98       0.0379
     75  N          8.8210   -7.1750  -25.1350 N.am   99  GLY99      -0.1939
     76  CA         9.0460   -8.2510  -26.1020 C.3    99  GLY99       0.2014
     77  C          9.5430   -7.7650  -27.4540 C.2    99  GLY99       0.2639
     78  O          9.2860   -8.4060  -28.4770 O.2    99  GLY99      -0.2714
     79  N         10.2620   -6.6420  -27.4540 N.am  100  LYS100     -0.1963
     80  CA        10.6910   -5.9680  -28.6840 C.3   100  LYS100      0.1728
     81  C         11.7530   -6.7330  -29.4720 C.2   100  LYS100      0.2617
     82  O         11.6800   -6.7960  -30.6970 O.2   100  LYS100     -0.2715
     83  CB        11.2040   -4.5690  -28.3710 C.3   100  LYS100      0.0311
     84  CG        10.1590   -3.6510  -27.7830 C.3   100  LYS100      0.0038
     85  CD        10.7730   -2.2870  -27.4110 C.3   100  LYS100      0.0206
     86  CE        11.8610   -2.3780  -26.3520 C.3   100  LYS100      0.1093
     87  NZ        11.3110   -2.8360  -25.0610 N.3   100  LYS100     -0.1314
     88  N         12.7320   -7.3000  -28.7610 N.am  101  SER101     -0.1936
     89  CA        13.7750   -8.1390  -29.3620 C.3   101  SER101      0.2055
     90  C         13.1980   -9.4260  -29.9290 C.2   101  SER101      0.2643
     91  O         13.5350   -9.8230  -31.0410 O.2   101  SER101     -0.2714
     92  CB        14.8420   -8.4770  -28.3300 C.3   101  SER101      0.2130
     93  OG        15.3960   -7.2780  -27.8370 O.3   101  SER101     -0.2179
     94  N         12.3350  -10.0760  -29.1550 N.am  102  THR102     -0.1950
     95  CA        11.6510  -11.2960  -29.5890 C.3   102  THR102      0.1897
     96  C         10.9390  -11.0720  -30.9210 C.2   102  THR102      0.2313
     97  O         11.0460  -11.8980  -31.8300 O.2   102  THR102     -0.2863
     98  CB        10.6520  -11.7730  -28.5190 C.3   102  THR102      0.1794
     99  OG1       11.3560  -11.9810  -27.2940 O.3   102  THR102     -0.2208
    100  CG2        9.9570  -13.0860  -28.9310 C.3   102  THR102      0.0378
    101  N         15.5130   -2.0440  -31.4910 N.3   129  PRO129     -0.2116
    102  CA        14.3510   -1.2720  -31.0510 C.3   129  PRO129      0.1372
    103  C         14.7420   -0.0360  -30.2530 C.2   129  PRO129      0.2244
    104  O         15.7910   -0.0250  -29.6120 O.2   129  PRO129     -0.2868
    105  CB        13.5930   -2.2580  -30.1640 C.3   129  PRO129      0.0268
    106  CG        14.6040   -3.2160  -29.6810 C.3   129  PRO129      0.0207
    107  CD        15.7950   -3.1810  -30.5910 C.3   129  PRO129      0.0892
    108  N         14.1530    1.9280  -26.9790 N.3   131  ILE131     -0.1245
    109  CA        13.6470    1.6830  -25.6320 C.3   131  ILE131      0.1561
    110  C         13.1980    3.0020  -25.0310 C.2   131  ILE131      0.2260
    111  O         13.9960    3.9340  -24.9080 O.2   131  ILE131     -0.2867
    112  CB        14.7010    0.9860  -24.7370 C.3   131  ILE131      0.0252
    113  CG1       15.1140   -0.3450  -25.3770 C.3   131  ILE131      0.0019
    114  CG2       14.1540    0.7580  -23.3280 C.3   131  ILE131      0.0019
    115  CD1       16.4540   -0.9310  -24.9130 C.3   131  ILE131      0.0001
    116  N          6.6430  -12.7370  -16.0040 N.3   214  GLN214     -0.1245
    117  CA         6.8330  -13.9320  -16.8230 C.3   214  GLN214      0.1566
    118  C          5.5520  -14.7400  -17.0530 C.2   214  GLN214      0.2260
    119  O          5.5830  -15.7510  -17.7470 O.2   214  GLN214     -0.2867
    120  CB         7.9140  -14.8300  -16.2030 C.3   214  GLN214      0.0367
    121  CG         9.3260  -14.2040  -16.1440 C.3   214  GLN214      0.0905
    122  CD        10.3760  -15.0910  -15.4230 C.2   214  GLN214      0.2608
    123  OE1       10.0520  -16.1480  -14.8720 O.2   214  GLN214     -0.2717
    124  NE2       11.6390  -14.6530  -15.4390 N.am  214  GLN214     -0.0878
@<TRIPOS>BOND
     1    97    96    2
     2   101   102    1
     3   101   107    1
     4    47    46    2
     5   102   103    1
     6   102   105    1
     7    91    90    2
     8    96    95    1
     9    82    81    2
    10    37    36    2
    11   107   106    1
    12   103   104    2
    13   105   106    1
    14    46    45    1
    15    90    89    1
    16    90    94   am
    17    34    35    1
    18    95    94    1
    19    95    98    1
    20    43    41   ar
    21    43    42   ar
    22    81    88   am
    23    81    80    1
    24    36    35    1
    25    36    44   am
    26    89    88    1
    27    89    92    1
    28    41    39   ar
    29    45    44    1
    30    45    48    1
    31    42    40   ar
    32   100    98    1
    33    35    38    1
    34    80    83    1
    35    80    79    1
    36    98    99    1
    37    78    77    2
    38    39    40   ar
    39    39    38    1
    40    83    84    1
    41     7     6    2
    42    92    93    1
    43    48    49    1
    44    84    85    1
    45     6     8   am
    46     6     5    1
    47    79    77   am
    48    77    76    1
    49    85    86    1
    50    49    50    1
    51     1     2    1
    52     5     2    1
    53     2     3    1
    54   108   109    1
    55    50    51    1
    56    86    87    1
    57    76    75    1
    58     9     3   am
    59     9    10    1
    60     3     4    2
    61   109   110    1
    62   109   112    1
    63   113   115    1
    64   113   112    1
    65    71    70    2
    66    52    51    1
    67    75    70   am
    68    73    72    1
    69   110   111    2
    70    70    69    1
    71    22    23    1
    72    22    19    1
    73   112   114    1
    74    10    11    1
    75    10    13    1
    76    18    19    1
    77    24    23   ar
    78    23    25   ar
    79    11    12    2
    80    19    20    1
    81    72    69    1
    82    72    74    1
    83    14    13    1
    84    14    15    1
    85    69    68    1
    86    68    62   am
    87    20    21    2
    88    20    26   am
    89    16    15    1
    90    16    17    1
    91    62    63    2
    92    62    61    1
    93    26    27    1
    94    60    61    1
    95    60    55   am
    96    53    54    1
    97    53    59    1
    98    54    55    1
    99    54    57    1
   100    61    64    1
   101    55    56    2
   102    59    58    1
   103    27    28    1
   104    27    30    1
   105    31    30    1
   106    31    33    1
   107    32    30    1
   108    57    58    1
   109    28    29    2
   110    64    65    1
   111    66    65    2
   112    65    67   am
   113   119   118    2
   114   118   117    1
   115   117   120    1
   116   117   116    1
   117   120   121    1
   118   121   122    1
   119   124   122   am
   120   122   123    2
