@<TRIPOS>MOLECULE
tmp/3cnoA00.pdb
 124 120 0 0 0
SMALL
GASTEIGER

@<TRIPOS>ATOM
      1  N         16.1590   -8.2370   26.6030 N.3    42  ASN42      -0.1225
      2  CA        15.1290   -9.2900   26.6480 C.3    42  ASN42       0.1785
      3  C         15.0470  -10.0980   25.3650 C.2    42  ASN42       0.2597
      4  O         15.5730   -9.6860   24.3330 O.2    42  ASN42      -0.2718
      5  CB        13.7520   -8.6690   26.9050 C.3    42  ASN42       0.1169
      6  CG        12.7840   -9.6440   27.5600 C.2    42  ASN42       0.2627
      7  OD1       13.1900  -10.6050   28.2060 O.2    42  ASN42      -0.2716
      8  ND2       11.4920   -9.3980   27.3910 N.am   42  ASN42      -0.0877
      9  N         14.3650  -11.2400   25.4370 N.am   43  LYS43      -0.1980
     10  CA        14.1260  -12.1170   24.2920 C.3    43  LYS43       0.1596
     11  C         15.4180  -12.7230   23.7600 C.2    43  LYS43       0.2287
     12  O         15.5850  -12.9030   22.5510 O.2    43  LYS43      -0.2864
     13  CB        13.3430  -11.4000   23.1730 C.3    43  LYS43       0.0298
     14  CG        12.0940  -10.6940   23.6490 C.3    43  LYS43       0.0038
     15  CD        11.2100  -10.2430   22.5010 C.3    43  LYS43       0.0206
     16  CE         9.9130   -9.6410   23.0320 C.3    43  LYS43       0.1093
     17  NZ         9.0720   -9.1860   21.9120 N.3    43  LYS43      -0.1314
     18  N         16.2900  -15.6430   23.8800 N.3    45  ASP45      -0.1225
     19  CA        15.9170  -16.9260   23.2830 C.3    45  ASP45       0.1805
     20  C         15.7210  -16.8850   21.7660 C.2    45  ASP45       0.2597
     21  O         15.8360  -17.9100   21.0920 O.2    45  ASP45      -0.2718
     22  CB        14.6240  -17.4540   23.9270 C.3    45  ASP45       0.1424
     23  CG        13.4430  -16.4720   23.7850 C.2    45  ASP45       0.3668
     24  OD1       13.5930  -15.2910   24.1640 O.co2  45  ASP45      -0.2456
     25  OD2       12.3600  -16.8870   23.3110 O.co2  45  ASP45      -0.2456
     26  N         15.3860  -15.7120   21.2280 N.am   46  ILE46      -0.1980
     27  CA        15.1500  -15.5920   19.7860 C.3    46  ILE46       0.1595
     28  C         16.1710  -14.6810   19.0930 C.2    46  ILE46       0.2287
     29  O         16.0130  -14.3290   17.9130 O.2    46  ILE46      -0.2864
     30  CB        13.6820  -15.1870   19.4630 C.3    46  ILE46       0.0276
     31  CG1       13.3090  -13.8590   20.1330 C.3    46  ILE46       0.0022
     32  CG2       12.7180  -16.3200   19.8440 C.3    46  ILE46       0.0022
     33  CD1       12.0550  -13.1990   19.5490 C.3    46  ILE46       0.0001
     34  N         14.8490  -13.7620   29.3620 N.3    70  HIS70      -0.1226
     35  CA        13.7890  -14.1000   28.4200 C.3    70  HIS70       0.1752
     36  C         12.5900  -14.6510   29.1790 C.2    70  HIS70       0.2595
     37  O         12.6760  -14.9080   30.3760 O.2    70  HIS70      -0.2718
     38  CB        14.2690  -15.0830   27.3390 C.3    70  HIS70       0.0759
     39  CG        14.7020  -16.4130   27.8770 C.ar   70  HIS70       0.0818
     40  ND1       13.8900  -17.5290   27.8480 N.ar   70  HIS70      -0.2268
     41  CD2       15.8650  -16.8050   28.4510 C.ar   70  HIS70       0.1154
     42  CE1       14.5290  -18.5450   28.3990 C.ar   70  HIS70       0.1986
     43  NE2       15.7290  -18.1340   28.7690 N.ar   70  HIS70      -0.2212
     44  N         11.4820  -14.8060   28.4610 N.am   71  LYS71      -0.1980
     45  CA        10.2050  -15.2510   29.0020 C.3    71  LYS71       0.1596
     46  C         10.3730  -16.4310   29.9430 C.2    71  LYS71       0.2287
     47  O          9.8860  -16.4030   31.0670 O.2    71  LYS71      -0.2864
     48  CB         9.2940  -15.6650   27.8420 C.3    71  LYS71       0.0298
     49  CG         7.8530  -15.1810   27.9440 C.3    71  LYS71       0.0038
     50  CD         6.9690  -15.8080   26.8520 C.3    71  LYS71       0.0206
     51  CE         7.7430  -16.0290   25.5520 C.3    71  LYS71       0.1093
     52  NZ         7.0060  -16.8260   24.5250 N.3    71  LYS71      -0.1314
     53  N          6.8020   -0.2710   22.7210 N.3    96  PRO96      -0.2102
     54  CA         5.8040   -1.3550   22.6610 C.3    96  PRO96       0.1504
     55  C          6.3620   -2.7350   22.2710 C.2    96  PRO96       0.2576
     56  O          7.3020   -2.8210   21.4770 O.2    96  PRO96      -0.2718
     57  CB         4.8200   -0.8730   21.5850 C.3    96  PRO96       0.0282
     58  CG         4.9110    0.6270   21.6410 C.3    96  PRO96       0.0208
     59  CD         6.3790    0.9040   21.9260 C.3    96  PRO96       0.0893
     60  N          5.7600   -3.7750   22.8570 N.am   97  ASN97      -0.1961
     61  CA         5.9300   -5.2020   22.5140 C.3    97  ASN97       0.1819
     62  C          7.2990   -5.8470   22.7790 C.2    97  ASN97       0.2622
     63  O          7.6690   -6.8740   22.2220 O.2    97  ASN97      -0.2715
     64  CB         5.3230   -5.5080   21.1420 C.3    97  ASN97       0.1195
     65  CG         3.8280   -5.1360   21.0870 C.2    97  ASN97       0.2630
     66  OD1        3.0270   -5.5740   21.9390 O.2    97  ASN97      -0.2716
     67  ND2        3.4560   -4.3030   20.1080 N.am   97  ASN97      -0.0877
     68  N          7.9910   -5.2630   23.7350 N.am   98  THR98      -0.1937
     69  CA         9.3650   -5.5690   24.0080 C.3    98  THR98       0.2028
     70  C          9.4600   -6.5810   25.1880 C.2    98  THR98       0.2643
     71  O         10.5290   -7.1450   25.4750 O.2    98  THR98      -0.2714
     72  CB        10.0820   -4.2130   24.2060 C.3    98  THR98       0.1808
     73  OG1       11.3180   -4.1730   23.4750 O.3    98  THR98      -0.2208
     74  CG2       10.2220   -3.8310   25.6640 C.3    98  THR98       0.0379
     75  N          8.3170   -6.8320   25.8270 N.am   99  GLY99      -0.1939
     76  CA         8.1680   -7.9280   26.7920 C.3    99  GLY99       0.2014
     77  C          7.9270   -7.4510   28.2160 C.2    99  GLY99       0.2639
     78  O          8.1330   -8.1960   29.1850 O.2    99  GLY99      -0.2714
     79  N          7.4760   -6.2050   28.3280 N.am  100  LYS100     -0.1963
     80  CA         7.3090   -5.5300   29.6100 C.3   100  LYS100      0.1728
     81  C          6.1730   -6.0980   30.4650 C.2   100  LYS100      0.2617
     82  O          6.3550   -6.2870   31.6680 O.2   100  LYS100     -0.2715
     83  CB         7.1220   -4.0220   29.4080 C.3   100  LYS100      0.0311
     84  CG         8.2710   -3.3460   28.6500 C.3   100  LYS100      0.0038
     85  CD         8.1160   -1.8230   28.6150 C.3   100  LYS100      0.0206
     86  CE         6.8030   -1.3840   27.9510 C.3   100  LYS100      0.1093
     87  NZ         6.7230   -1.8130   26.5240 N.3   100  LYS100     -0.1314
     88  N          5.0090   -6.3560   29.8680 N.am  101  SER101     -0.1936
     89  CA         3.8970   -6.9620   30.6170 C.3   101  SER101      0.2055
     90  C          4.2990   -8.3380   31.1180 C.2   101  SER101      0.2643
     91  O          4.1030   -8.6570   32.2940 O.2   101  SER101     -0.2714
     92  CB         2.6420   -7.0950   29.7570 C.3   101  SER101      0.2130
     93  OG         2.2480   -5.8440   29.2350 O.3   101  SER101     -0.2179
     94  N          4.8660   -9.1470   30.2220 N.am  102  THR102     -0.1950
     95  CA         5.3330  -10.4900   30.5840 C.3   102  THR102      0.1897
     96  C          6.2700  -10.4440   31.7930 C.2   102  THR102      0.2313
     97  O          6.1340  -11.2450   32.7110 O.2   102  THR102     -0.2863
     98  CB         6.0170  -11.1660   29.4010 C.3   102  THR102      0.1794
     99  OG1        5.1790  -11.0430   28.2560 O.3   102  THR102     -0.2208
    100  CG2        6.2460  -12.6330   29.6680 C.3   102  THR102      0.0378
    101  N          3.7510   -0.7140   33.0400 N.3   129  PRO129     -0.2116
    102  CA         5.0090   -0.2130   32.4700 C.3   129  PRO129      0.1372
    103  C          4.8010    1.0960   31.7430 C.2   129  PRO129      0.2244
    104  O          3.7530    1.2860   31.1280 O.2   129  PRO129     -0.2868
    105  CB         5.3970   -1.2820   31.4430 C.3   129  PRO129      0.0268
    106  CG         4.3700   -2.3710   31.5350 C.3   129  PRO129      0.0207
    107  CD         3.1860   -1.8340   32.2630 C.3   129  PRO129      0.0892
    108  N          5.1920    3.1750   28.6100 N.3   131  ILE131     -0.1245
    109  CA         5.3390    2.8760   27.1770 C.3   131  ILE131      0.1561
    110  C          5.9200    4.0700   26.4210 C.2   131  ILE131      0.2260
    111  O          5.4150    5.1940   26.5020 O.2   131  ILE131     -0.2867
    112  CB         4.0050    2.4300   26.5440 C.3   131  ILE131      0.0252
    113  CG1        3.3230    1.3700   27.4290 C.3   131  ILE131      0.0019
    114  CG2        4.2300    1.9230   25.1190 C.3   131  ILE131      0.0019
    115  CD1        1.9390    0.9850   26.9860 C.3   131  ILE131      0.0001
    116  N          8.3550  -12.3980   16.0130 N.3   214  GLN214     -0.1245
    117  CA         8.0390  -13.4810   16.9400 C.3   214  GLN214      0.1566
    118  C          9.1820  -14.4880   17.0710 C.2   214  GLN214      0.2260
    119  O          9.0980  -15.4170   17.8690 O.2   214  GLN214     -0.2867
    120  CB         6.7730  -14.2080   16.4900 C.3   214  GLN214      0.0367
    121  CG         5.5300  -13.3410   16.4550 C.3   214  GLN214      0.0905
    122  CD         4.2950  -14.1360   16.0750 C.2   214  GLN214      0.2608
    123  OE1        4.3180  -14.9270   15.1410 O.2   214  GLN214     -0.2717
    124  NE2        3.2130  -13.9250   16.7950 N.am  214  GLN214     -0.0878
@<TRIPOS>BOND
     1   123   122    2
     2   116   117    1
     3   122   121    1
     4   122   124   am
     5   121   120    1
     6   120   117    1
     7   117   118    1
     8   118   119    2
     9    29    28    2
    10    28    27    1
    11    30    27    1
    12    30    32    1
    13    30    31    1
    14    33    31    1
    15    27    26    1
    16    67    65   am
    17    65    64    1
    18    65    66    2
    19    21    20    2
    20    64    61    1
    21    26    20   am
    22    56    55    2
    23    57    58    1
    24    57    54    1
    25    58    59    1
    26    20    19    1
    27    17    16    1
    28    59    53    1
    29    63    62    2
    30    55    54    1
    31    55    60   am
    32    15    16    1
    33    15    14    1
    34    61    62    1
    35    61    60    1
    36    12    11    2
    37    54    53    1
    38    62    68   am
    39    13    14    1
    40    13    10    1
    41    19    18    1
    42    19    22    1
    43    25    23   ar
    44    73    72    1
    45    68    69    1
    46    11    10    1
    47    23    22    1
    48    23    24   ar
    49    69    72    1
    50    69    70    1
    51    72    74    1
    52    10     9    1
    53     4     3    2
    54    52    51    1
    55   114   112    1
    56    70    71    2
    57    70    75   am
    58     3     9   am
    59     3     2    1
    60    51    50    1
    61    75    76    1
    62   110   111    2
    63   110   109    1
    64    87    86    1
    65   112   109    1
    66   112   113    1
    67     1     2    1
    68     2     5    1
    69    76    77    1
    70    50    49    1
    71     5     6    1
    72   115   113    1
    73   109   108    1
    74    38    39    1
    75    38    35    1
    76     8     6   am
    77     6     7    2
    78    48    49    1
    79    48    45    1
    80    40    39   ar
    81    40    42   ar
    82    39    41   ar
    83    86    85    1
    84    77    79   am
    85    77    78    2
    86    99    98    1
    87    79    80    1
    88    42    43   ar
    89    35    36    1
    90    35    34    1
    91    41    43   ar
    92    44    45    1
    93    44    36   am
    94    85    84    1
    95    84    83    1
    96    45    46    1
    97    36    37    2
    98    93    92    1
    99    98   100    1
   100    98    95    1
   101    83    80    1
   102    80    81    1
   103    92    89    1
   104    88    81   am
   105    88    89    1
   106    46    47    2
   107    94    95    1
   108    94    90   am
   109    81    82    2
   110    95    96    1
   111    89    90    1
   112    90    91    2
   113   104   103    2
   114   105   106    1
   115   105   102    1
   116   106   107    1
   117   103   102    1
   118    96    97    2
   119   107   101    1
   120   102   101    1
