@<TRIPOS>MOLECULE
tmp/3cnpB01.pdb
 149 147 0 0 0
SMALL
GASTEIGER

@<TRIPOS>ATOM
      1  N         64.0050  -15.3360   59.6570 N.3    59  ALA59      -0.1231
      2  CA        63.3720  -16.6110   59.9980 C.3    59  ALA59       0.1694
      3  C         61.8520  -16.4890   60.2040 C.2    59  ALA59       0.2593
      4  O         61.3560  -15.4940   60.7590 O.2    59  ALA59      -0.2718
      5  CB        64.0120  -17.1760   61.2450 C.3    59  ALA59       0.0304
      6  N         61.1110  -17.5110   59.7790 N.am   60  SER60      -0.1938
      7  CA        59.6510  -17.4910   59.9120 C.3    60  SER60       0.2055
      8  C         59.0610  -18.6550   60.6750 C.2    60  SER60       0.2643
      9  O         58.0240  -18.5160   61.3200 O.2    60  SER60      -0.2714
     10  CB        58.9750  -17.4730   58.5370 C.3    60  SER60       0.2130
     11  OG        59.2260  -16.2730   57.8430 O.3    60  SER60      -0.2179
     12  N         59.7050  -19.8110   60.5920 N.am   61  TRP61      -0.1973
     13  CA        59.1570  -20.9820   61.2560 C.3    61  TRP61       0.1640
     14  C         59.9410  -21.5470   62.4150 C.2    61  TRP61       0.2290
     15  O         61.1500  -21.3670   62.5310 O.2    61  TRP61      -0.2864
     16  CB        58.9810  -22.1290   60.2510 C.3    61  TRP61       0.0576
     17  CG        58.0300  -21.8820   59.1320 C.ar   61  TRP61       0.0006
     18  CD1       56.6990  -22.1520   59.1140 C.ar   61  TRP61       0.0946
     19  CD2       58.3590  -21.3790   57.8360 C.ar   61  TRP61       0.0152
     20  NE1       56.1700  -21.8610   57.8830 N.ar   61  TRP61      -0.2442
     21  CE2       57.1670  -21.3820   57.0740 C.ar   61  TRP61       0.0810
     22  CE3       59.5510  -20.9250   57.2390 C.ar   61  TRP61       0.0012
     23  CZ2       57.1240  -20.9550   55.7450 C.ar   61  TRP61       0.0191
     24  CZ3       59.5120  -20.4960   55.9140 C.ar   61  TRP61       0.0001
     25  CH2       58.3010  -20.5160   55.1810 C.ar   61  TRP61       0.0015
     26  N         61.0180  -24.8650   63.4920 N.3    63  HIS63      -0.1241
     27  CA        61.1650  -26.1760   62.8850 C.3    63  HIS63       0.1621
     28  C         61.2620  -27.2150   63.9860 C.2    63  HIS63       0.2264
     29  O         61.5380  -26.8810   65.1400 O.2    63  HIS63      -0.2867
     30  CB        62.4330  -26.2260   62.0160 C.3    63  HIS63       0.0745
     31  CG        62.4160  -25.2740   60.8590 C.ar   63  HIS63       0.0817
     32  ND1       61.3950  -25.2460   59.9330 N.ar   63  HIS63      -0.2268
     33  CD2       63.3070  -24.3290   60.4660 C.ar   63  HIS63       0.1154
     34  CE1       61.6580  -24.3250   59.0200 C.ar   63  HIS63       0.1986
     35  NE2       62.8130  -23.7550   59.3180 N.ar   63  HIS63      -0.2212
     36  N         65.0290  -24.4710   48.6360 N.3   169  LEU169     -0.1231
     37  CA        64.5500  -23.4390   49.5390 C.3   169  LEU169      0.1693
     38  C         64.7200  -23.8150   51.0020 C.2   169  LEU169      0.2592
     39  O         64.2290  -23.1200   51.8860 O.2   169  LEU169     -0.2718
     40  CB        63.0880  -23.0820   49.2420 C.3   169  LEU169      0.0284
     41  CG        62.8320  -22.4330   47.8710 C.3   169  LEU169      0.0019
     42  CD1       63.9320  -21.4000   47.5840 C.3   169  LEU169      0.0001
     43  CD2       62.8120  -23.4940   46.7750 C.3   169  LEU169      0.0001
     44  N         65.4000  -24.9220   51.2700 N.am  170  TRP170     -0.1962
     45  CA        65.6500  -25.2860   52.6570 C.3   170  TRP170      0.1771
     46  C         67.0930  -24.9270   52.9910 C.2   170  TRP170      0.2619
     47  O         67.4160  -24.5860   54.1290 O.2   170  TRP170     -0.2715
     48  CB        65.4130  -26.7790   52.9080 C.3   170  TRP170      0.0590
     49  CG        65.8970  -27.2210   54.2800 C.ar  170  TRP170      0.0006
     50  CD1       67.1040  -27.8180   54.5810 C.ar  170  TRP170      0.0946
     51  CD2       65.2190  -27.0430   55.5380 C.ar  170  TRP170      0.0152
     52  NE1       67.2110  -28.0180   55.9430 N.ar  170  TRP170     -0.2442
     53  CE2       66.0740  -27.5520   56.5530 C.ar  170  TRP170      0.0810
     54  CE3       63.9760  -26.5030   55.9070 C.ar  170  TRP170      0.0012
     55  CZ2       65.7200  -27.5340   57.9120 C.ar  170  TRP170      0.0191
     56  CZ3       63.6270  -26.4870   57.2610 C.ar  170  TRP170      0.0001
     57  CH2       64.4990  -27.0000   58.2430 C.ar  170  TRP170      0.0015
     58  N         67.9500  -24.9850   51.9790 N.am  171  HIS171     -0.1973
     59  CA        69.3660  -24.6910   52.1340 C.3   171  HIS171      0.1656
     60  C         69.7520  -23.2990   51.5820 C.2   171  HIS171      0.2291
     61  O         70.8000  -22.7520   51.9430 O.2   171  HIS171     -0.2864
     62  CB        70.1910  -25.7830   51.4200 C.3   171  HIS171      0.0771
     63  CG        70.0380  -27.1600   52.0080 C.ar  171  HIS171      0.0820
     64  ND1       70.7720  -27.5980   53.0920 N.ar  171  HIS171     -0.2267
     65  CD2       69.2500  -28.2030   51.6440 C.ar  171  HIS171      0.1154
     66  CE1       70.4460  -28.8500   53.3660 C.ar  171  HIS171      0.1986
     67  NE2       69.5250  -29.2410   52.5010 N.ar  171  HIS171     -0.2212
     68  N         74.2110  -33.5770   52.2500 N.3   182  ASP182     -0.1239
     69  CA        73.5560  -32.7560   53.2490 C.3   182  ASP182      0.1674
     70  C         72.1580  -32.3340   52.8530 C.2   182  ASP182      0.2266
     71  O         71.4480  -31.7140   53.6330 O.2   182  ASP182     -0.2867
     72  CB        74.4070  -31.5080   53.5100 C.3   182  ASP182      0.1410
     73  CG        74.1180  -30.8740   54.8520 C.2   182  ASP182      0.3668
     74  OD1       74.0810  -29.6280   54.9220 O.co2 182  ASP182     -0.2456
     75  OD2       73.9420  -31.6220   55.8400 O.co2 182  ASP182     -0.2456
     76  N         69.4190  -17.8730   51.2830 N.3   290  LEU290     -0.1245
     77  CA        67.9760  -17.9780   51.1910 C.3   290  LEU290      0.1561
     78  C         67.4880  -16.5190   51.2010 C.2   290  LEU290      0.2260
     79  O         67.9620  -15.7110   51.9970 O.2   290  LEU290     -0.2867
     80  CB        67.4150  -18.7180   52.4060 C.3   290  LEU290      0.0270
     81  CG        65.9130  -19.0160   52.3470 C.3   290  LEU290      0.0019
     82  CD1       65.6810  -20.1370   51.3480 C.3   290  LEU290      0.0001
     83  CD2       65.3810  -19.4270   53.7250 C.3   290  LEU290      0.0001
     84  N         64.0220  -13.5470   50.5060 N.3   292  LYS292     -0.1245
     85  CA        62.5780  -13.3790   50.5440 C.3   292  LYS292      0.1561
     86  C         62.0720  -12.1920   49.7540 C.2   292  LYS292      0.2260
     87  O         62.7320  -11.1540   49.6630 O.2   292  LYS292     -0.2867
     88  CB        62.0930  -13.2310   51.9780 C.3   292  LYS292      0.0271
     89  CG        62.2450  -14.4850   52.8070 C.3   292  LYS292      0.0035
     90  CD        61.4750  -14.3680   54.1030 C.3   292  LYS292      0.0206
     91  CE        61.5850  -15.6450   54.8930 C.3   292  LYS292      0.1093
     92  NZ        60.5410  -15.7020   55.9410 N.3   292  LYS292     -0.1314
     93  N         59.3460  -20.8170   45.9920 N.3   349  PHE349     -0.1241
     94  CA        58.4250  -21.2800   47.0190 C.3   349  PHE349      0.1605
     95  C         57.5710  -20.1450   47.5830 C.2   349  PHE349      0.2264
     96  O         58.0850  -19.2320   48.2120 O.2   349  PHE349     -0.2867
     97  CB        59.2380  -21.9710   48.1230 C.3   349  PHE349      0.0534
     98  CG        58.4420  -22.3390   49.3520 C.ar  349  PHE349     -0.0203
     99  CD1       57.1710  -22.8890   49.2480 C.ar  349  PHE349     -0.0042
    100  CD2       58.9960  -22.1810   50.6160 C.ar  349  PHE349     -0.0042
    101  CE1       56.4670  -23.2800   50.3910 C.ar  349  PHE349     -0.0003
    102  CE2       58.3030  -22.5680   51.7640 C.ar  349  PHE349     -0.0003
    103  CZ        57.0410  -23.1170   51.6530 C.ar  349  PHE349     -0.0000
    104  N         60.0490  -17.4650   48.7240 N.3   365  LEU365     -0.1245
    105  CA        61.4270  -17.7750   49.0540 C.3   365  LEU365      0.1561
    106  C         62.2130  -18.0790   47.7910 C.2   365  LEU365      0.2260
    107  O         61.7100  -18.7160   46.8600 O.2   365  LEU365     -0.2867
    108  CB        61.5030  -18.9710   49.9980 C.3   365  LEU365      0.0270
    109  CG        61.3460  -18.7150   51.5000 C.3   365  LEU365      0.0019
    110  CD1       59.9880  -18.1130   51.8160 C.3   365  LEU365      0.0001
    111  CD2       61.5180  -20.0370   52.2220 C.3   365  LEU365      0.0001
    112  N         72.4980  -18.2710   56.1150 N.3   433  TYR433     -0.1227
    113  CA        72.9790  -19.1610   57.1810 C.3   433  TYR433      0.1736
    114  C         73.9210  -20.2360   56.6360 C.2   433  TYR433      0.2596
    115  O         74.0610  -20.3780   55.4220 O.2   433  TYR433     -0.2718
    116  CB        71.8110  -19.8190   57.9370 C.3   433  TYR433      0.0548
    117  CG        70.7220  -20.4010   57.0710 C.ar  433  TYR433     -0.0200
    118  CD1       70.8920  -21.6290   56.4050 C.ar  433  TYR433     -0.0009
    119  CD2       69.5120  -19.7220   56.9040 C.ar  433  TYR433     -0.0009
    120  CE1       69.8800  -22.1590   55.5940 C.ar  433  TYR433      0.0417
    121  CE2       68.4970  -20.2400   56.0980 C.ar  433  TYR433      0.0417
    122  CZ        68.6840  -21.4570   55.4460 C.ar  433  TYR433      0.1957
    123  OH        67.6610  -21.9590   54.6600 O.3   433  TYR433     -0.2866
    124  N         74.5690  -20.9880   57.5260 N.am  434  SER434     -0.1938
    125  CA        75.5050  -22.0230   57.0780 C.3   434  SER434      0.2055
    126  C         74.8480  -23.1030   56.2300 C.2   434  SER434      0.2642
    127  O         73.7410  -23.5680   56.5230 O.2   434  SER434     -0.2714
    128  CB        76.2470  -22.6650   58.2640 C.3   434  SER434      0.2130
    129  OG        75.3680  -23.1550   59.2600 O.3   434  SER434     -0.2179
    130  N         75.5470  -23.4800   55.1640 N.am  435  ALA435     -0.1977
    131  CA        75.0800  -24.4890   54.2240 C.3   435  ALA435      0.1597
    132  C         76.3050  -25.2050   53.6780 C.2   435  ALA435      0.2287
    133  O         77.4250  -24.7080   53.8270 O.2   435  ALA435     -0.2864
    134  CB        74.3120  -23.8320   53.0910 C.3   435  ALA435      0.0319
    135  N         71.1940  -27.0590   63.6670 N.3   469  ALA469     -0.1231
    136  CA        72.1700  -26.2650   62.9440 C.3   469  ALA469      0.1694
    137  C         71.4370  -25.4070   61.9050 C.2   469  ALA469      0.2593
    138  O         70.5210  -25.8840   61.2410 O.2   469  ALA469     -0.2718
    139  CB        73.1930  -27.1800   62.2600 C.3   469  ALA469      0.0304
    140  N         71.8320  -24.1410   61.7970 N.am  470  GLY470     -0.1942
    141  CA        71.2200  -23.2410   60.8400 C.3   470  GLY470      0.2014
    142  C         69.8330  -22.7520   61.2010 C.2   470  GLY470      0.2639
    143  O         69.2350  -21.9990   60.4420 O.2   470  GLY470     -0.2714
    144  N         69.3150  -23.1660   62.3520 N.am  471  CYS471     -0.1967
    145  CA        67.9780  -22.7590   62.7700 C.3   471  CYS471      0.1712
    146  C         67.9840  -21.7780   63.9470 C.2   471  CYS471      0.2296
    147  O         68.9540  -21.6890   64.7030 O.2   471  CYS471     -0.2864
    148  CB        67.1480  -23.9910   63.1660 C.3   471  CYS471      0.0983
    149  SG        66.8800  -25.1790   61.8490 S.3   471  CYS471     -0.0798
@<TRIPOS>BOND
     1    93    94    1
     2    43    41    1
     3   107   106    2
     4    94    95    1
     5    94    97    1
     6    95    96    2
     7    42    41    1
     8   106   105    1
     9    41    40    1
    10    97    98    1
    11    36    37    1
    12   104   105    1
    13   105   108    1
    14    40    37    1
    15    99    98   ar
    16    99   101   ar
    17    98   100   ar
    18    37    38    1
    19    87    86    2
    20    86    85    1
    21   108   109    1
    22   101   103   ar
    23    84    85    1
    24    85    88    1
    25   100   102   ar
    26    38    44   am
    27    38    39    2
    28    77    78    1
    29    77    76    1
    30    77    80    1
    31    78    79    2
    32    44    45    1
    33    82    81    1
    34    62    63    1
    35    62    59    1
    36   109   110    1
    37   109   111    1
    38    60    61    2
    39    60    59    1
    40    65    63   ar
    41    65    67   ar
    42   103   102   ar
    43    88    89    1
    44    58    59    1
    45    58    46   am
    46    63    64   ar
    47    68    69    1
    48    81    80    1
    49    81    83    1
    50    67    66   ar
    51    45    48    1
    52    45    46    1
    53    89    90    1
    54    70    69    1
    55    70    71    2
    56    48    49    1
    57    46    47    2
    58   134   131    1
    59    64    66   ar
    60    69    72    1
    61    72    73    1
    62   132   133    2
    63   132   131    1
    64    90    91    1
    65   131   130    1
    66    49    50   ar
    67    49    51   ar
    68    50    52   ar
    69   123   122    1
    70    73    74   ar
    71    73    75   ar
    72    91    92    1
    73   130   126   am
    74    25    23   ar
    75    25    24   ar
    76   115   114    2
    77   122   120   ar
    78   122   121   ar
    79    51    54   ar
    80    51    53   ar
    81   120   118   ar
    82    23    21   ar
    83    54    56   ar
    84    24    22   ar
    85    52    53   ar
    86   121   119   ar
    87   112   113    1
    88   126   127    2
    89   126   125    1
    90   118   117   ar
    91    53    55   ar
    92   114   113    1
    93   114   124   am
    94   119   117   ar
    95   117   116    1
    96    21    19   ar
    97    21    20   ar
    98   125   124    1
    99   125   128    1
   100   113   116    1
   101    22    19   ar
   102    56    57   ar
   103    19    17   ar
   104    11    10    1
   105    20    18   ar
   106    55    57   ar
   107   128   129    1
   108    10     7    1
   109    34    35   ar
   110    34    32   ar
   111    18    17   ar
   112    17    16    1
   113    35    33   ar
   114     1     2    1
   115     6     7    1
   116     6     3   am
   117     7     8    1
   118    32    31   ar
   119     2     3    1
   120     2     5    1
   121     3     4    2
   122    16    13    1
   123   143   142    2
   124    33    31   ar
   125    12     8   am
   126    12    13    1
   127     8     9    2
   128   141   142    1
   129   141   140    1
   130    31    30    1
   131   142   144   am
   132   138   137    2
   133    13    14    1
   134   140   137   am
   135   149   148    1
   136   137   136    1
   137    30    27    1
   138   139   136    1
   139   144   145    1
   140    14    15    2
   141   145   148    1
   142   145   146    1
   143    27    26    1
   144    27    28    1
   145   136   135    1
   146   146   147    2
   147    28    29    2
