@<TRIPOS>MOLECULE
tmp/3cnsB01.pdb
 210 206 0 0 0
SMALL
GASTEIGER

@<TRIPOS>ATOM
      1  N         50.3980  -63.5630  -10.4080 N.3    55  ALA55      -0.1231
      2  CA        51.1910  -62.3570  -10.6140 C.3    55  ALA55       0.1694
      3  C         50.8950  -61.7730  -11.9900 C.2    55  ALA55       0.2593
      4  O         50.7090  -62.5140  -12.9460 O.2    55  ALA55      -0.2718
      5  CB        52.6690  -62.6860  -10.4940 C.3    55  ALA55       0.0304
      6  N         50.8300  -60.4470  -12.0830 N.am   56  SER56      -0.1938
      7  CA        50.5610  -59.8000  -13.3650 C.3    56  SER56       0.2055
      8  C         51.5780  -58.7190  -13.7810 C.2    56  SER56       0.2643
      9  O         51.6450  -58.3490  -14.9530 O.2    56  SER56      -0.2714
     10  CB        49.1310  -59.2270  -13.3810 C.3    56  SER56       0.2130
     11  OG        48.9250  -58.3240  -12.3090 O.3    56  SER56      -0.2179
     12  N         52.3780  -58.2270  -12.8430 N.am   57  TRP57      -0.1973
     13  CA        53.3650  -57.1880  -13.1660 C.3    57  TRP57       0.1640
     14  C         54.8240  -57.5790  -12.9730 C.2    57  TRP57       0.2290
     15  O         55.1540  -58.5080  -12.2340 O.2    57  TRP57      -0.2864
     16  CB        53.1600  -55.9390  -12.2990 C.3    57  TRP57       0.0576
     17  CG        51.9480  -55.1310  -12.5800 C.ar   57  TRP57       0.0006
     18  CD1       51.7840  -54.2190  -13.5750 C.ar   57  TRP57       0.0946
     19  CD2       50.7240  -55.1610  -11.8530 C.ar   57  TRP57       0.0152
     20  NE1       50.5290  -53.6750  -13.5130 N.ar   57  TRP57      -0.2442
     21  CE2       49.8540  -54.2390  -12.4650 C.ar   57  TRP57       0.0810
     22  CE3       50.2750  -55.8830  -10.7420 C.ar   57  TRP57       0.0012
     23  CZ2       48.5560  -54.0160  -12.0090 C.ar   57  TRP57       0.0191
     24  CZ3       48.9860  -55.6630  -10.2840 C.ar   57  TRP57       0.0001
     25  CH2       48.1400  -54.7370  -10.9170 C.ar   57  TRP57       0.0015
     26  N         57.8380  -55.8740  -11.4350 N.3    59  HIS59      -0.1241
     27  CA        58.0890  -54.7000  -10.6010 C.3    59  HIS59       0.1621
     28  C         59.5480  -54.2950  -10.7420 C.2    59  HIS59       0.2264
     29  O         60.3560  -55.0510  -11.2890 O.2    59  HIS59      -0.2867
     30  CB        57.8050  -54.9920   -9.1240 C.3    59  HIS59       0.0745
     31  CG        56.3950  -55.4100   -8.8420 C.ar   59  HIS59       0.0817
     32  ND1       55.3160  -54.5760   -9.0410 N.ar   59  HIS59      -0.2268
     33  CD2       55.8900  -56.5780   -8.3780 C.ar   59  HIS59       0.1154
     34  CE1       54.2050  -55.2130   -8.7130 C.ar   59  HIS59       0.1986
     35  NE2       54.5260  -56.4300   -8.3080 N.ar   59  HIS59      -0.2212
     36  N         46.4660  -42.2740  -10.4230 N.3    89  PHE89      -0.1241
     37  CA        45.3990  -42.9520   -9.7180 C.3    89  PHE89       0.1605
     38  C         44.1440  -42.1210   -9.5380 C.2    89  PHE89       0.2264
     39  O         44.2020  -40.9270   -9.2390 O.2    89  PHE89      -0.2867
     40  CB        45.8910  -43.4330   -8.3500 C.3    89  PHE89       0.0534
     41  CG        46.6210  -44.7390   -8.3980 C.ar   89  PHE89      -0.0203
     42  CD1       47.7930  -44.8690   -9.1250 C.ar   89  PHE89      -0.0042
     43  CD2       46.1300  -45.8480   -7.7120 C.ar   89  PHE89      -0.0042
     44  CE1       48.4770  -46.0930   -9.1700 C.ar   89  PHE89      -0.0003
     45  CE2       46.7990  -47.0720   -7.7500 C.ar   89  PHE89      -0.0003
     46  CZ        47.9760  -47.1940   -8.4790 C.ar   89  PHE89      -0.0000
     47  N         45.7860  -47.8520    0.0510 N.3   157  TYR157     -0.1241
     48  CA        45.9720  -48.5570   -1.2160 C.3   157  TYR157      0.1605
     49  C         47.1550  -49.4880   -1.0070 C.2   157  TYR157      0.2264
     50  O         47.3130  -50.4680   -1.7170 O.2   157  TYR157     -0.2867
     51  CB        46.2620  -47.5860   -2.3810 C.3   157  TYR157      0.0534
     52  CG        47.5510  -46.8070   -2.2520 C.ar  157  TYR157     -0.0201
     53  CD1       48.7880  -47.4010   -2.5140 C.ar  157  TYR157     -0.0009
     54  CD2       47.5420  -45.4850   -1.7930 C.ar  157  TYR157     -0.0009
     55  CE1       49.9870  -46.6980   -2.3110 C.ar  157  TYR157      0.0417
     56  CE2       48.7290  -44.7750   -1.5870 C.ar  157  TYR157      0.0417
     57  CZ        49.9460  -45.3850   -1.8420 C.ar  157  TYR157      0.1957
     58  OH        51.1130  -44.6880   -1.5890 O.3   157  TYR157     -0.2866
     59  N         46.8690  -53.2880   -0.7700 N.3   160  LEU160     -0.1231
     60  CA        46.9310  -54.0980   -1.9760 C.3   160  LEU160      0.1693
     61  C         48.3540  -54.3840   -2.4670 C.2   160  LEU160      0.2592
     62  O         48.5270  -55.1250   -3.4210 O.2   160  LEU160     -0.2718
     63  CB        46.1050  -53.4730   -3.1030 C.3   160  LEU160      0.0284
     64  CG        44.5780  -53.4920   -2.9400 C.3   160  LEU160      0.0019
     65  CD1       44.1560  -54.7080   -2.0980 C.3   160  LEU160      0.0001
     66  CD2       44.1060  -52.2060   -2.2900 C.3   160  LEU160      0.0001
     67  N         49.3680  -53.7990   -1.8350 N.am  161  TRP161     -0.1962
     68  CA        50.7550  -54.0920   -2.2140 C.3   161  TRP161      0.1771
     69  C         51.1340  -55.3350   -1.4000 C.2   161  TRP161      0.2619
     70  O         51.9330  -56.1610   -1.8360 O.2   161  TRP161     -0.2715
     71  CB        51.7280  -52.9540   -1.8300 C.3   161  TRP161      0.0590
     72  CG        51.8020  -51.7540   -2.7680 C.ar  161  TRP161      0.0006
     73  CD1       50.9360  -51.4390   -3.7680 C.ar  161  TRP161      0.0946
     74  CD2       52.7570  -50.6700   -2.7160 C.ar  161  TRP161      0.0152
     75  NE1       51.2750  -50.2330   -4.3420 N.ar  161  TRP161     -0.2442
     76  CE2       52.3870  -49.7380   -3.7160 C.ar  161  TRP161      0.0810
     77  CE3       53.8820  -50.3950   -1.9170 C.ar  161  TRP161      0.0012
     78  CZ2       53.1010  -48.5450   -3.9400 C.ar  161  TRP161      0.0191
     79  CZ3       54.5930  -49.2060   -2.1380 C.ar  161  TRP161      0.0001
     80  CH2       54.1960  -48.2980   -3.1420 C.ar  161  TRP161      0.0015
     81  N         50.5460  -55.4580   -0.2140 N.am  162  HIS162     -0.1973
     82  CA        50.8350  -56.5770    0.6840 C.3   162  HIS162      0.1656
     83  C         49.7520  -57.6450    0.7880 C.2   162  HIS162      0.2291
     84  O         50.0420  -58.7890    1.1560 O.2   162  HIS162     -0.2864
     85  CB        51.1050  -56.0470    2.0900 C.3   162  HIS162      0.0771
     86  CG        52.2780  -55.1250    2.1730 C.ar  162  HIS162      0.0820
     87  ND1       53.5580  -55.5730    2.4030 N.ar  162  HIS162     -0.2267
     88  CD2       52.3640  -53.7780    2.0560 C.ar  162  HIS162      0.1154
     89  CE1       54.3850  -54.5410    2.4250 C.ar  162  HIS162      0.1986
     90  NE2       53.6850  -53.4410    2.2180 N.ar  162  HIS162     -0.2212
     91  N         57.4110  -52.3670    7.6590 N.3   173  ASP173     -0.1239
     92  CA        57.6210  -52.8960    6.3150 C.3   173  ASP173      0.1674
     93  C         56.5730  -52.4210    5.2890 C.2   173  ASP173      0.2266
     94  O         56.6240  -52.8050    4.1210 O.2   173  ASP173     -0.2867
     95  CB        57.6700  -54.4360    6.3920 C.3   173  ASP173      0.1410
     96  CG        58.0980  -55.0910    5.0800 C.2   173  ASP173      0.3668
     97  OD1       57.2060  -55.5690    4.3470 O.co2 173  ASP173     -0.2456
     98  OD2       59.3200  -55.1300    4.7780 O.co2 173  ASP173     -0.2456
     99  N         57.7060  -49.3230    0.8190 N.3   176  PHE176     -0.1241
    100  CA        58.9100  -49.8720    0.2400 C.3   176  PHE176      0.1605
    101  C         59.1520  -49.2480   -1.1190 C.2   176  PHE176      0.2264
    102  O         58.2750  -49.2330   -1.9780 O.2   176  PHE176     -0.2867
    103  CB        58.8590  -51.4120    0.1910 C.3   176  PHE176      0.0534
    104  CG        57.8460  -51.9850   -0.7630 C.ar  176  PHE176     -0.0203
    105  CD1       58.1380  -52.1160   -2.1170 C.ar  176  PHE176     -0.0042
    106  CD2       56.6300  -52.4770   -0.2910 C.ar  176  PHE176     -0.0042
    107  CE1       57.2370  -52.7350   -2.9860 C.ar  176  PHE176     -0.0003
    108  CE2       55.7160  -53.1000   -1.1580 C.ar  176  PHE176     -0.0003
    109  CZ        56.0220  -53.2310   -2.5080 C.ar  176  PHE176     -0.0000
    110  N         60.2770  -48.3960   -4.8600 N.3   178  HIS178     -0.1241
    111  CA        60.1710  -49.1490   -6.0960 C.3   178  HIS178      0.1621
    112  C         61.2770  -48.6870   -7.0220 C.2   178  HIS178      0.2264
    113  O         61.5140  -47.4890   -7.1670 O.2   178  HIS178     -0.2867
    114  CB        58.8170  -48.8990   -6.7380 C.3   178  HIS178      0.0745
    115  CG        57.6810  -49.5220   -5.9950 C.ar  178  HIS178      0.0817
    116  ND1       57.3300  -50.8460   -6.1510 N.ar  178  HIS178     -0.2268
    117  CD2       56.8260  -49.0090   -5.0780 C.ar  178  HIS178      0.1154
    118  CE1       56.3050  -51.1200   -5.3640 C.ar  178  HIS178      0.1986
    119  NE2       55.9810  -50.0240   -4.7010 N.ar  178  HIS178     -0.2212
    120  N         56.3210  -50.0140  -13.2700 N.3   182  ASN182     -0.1240
    121  CA        55.9120  -51.4080  -13.3700 C.3   182  ASN182      0.1653
    122  C         55.4900  -51.6670  -14.8030 C.2   182  ASN182      0.2266
    123  O         55.0850  -50.7490  -15.5070 O.2   182  ASN182     -0.2867
    124  CB        54.7390  -51.7020  -12.4360 C.3   182  ASN182      0.1155
    125  CG        55.0900  -51.4790  -10.9880 C.2   182  ASN182      0.2627
    126  OD1       54.8840  -50.3920  -10.4440 O.2   182  ASN182     -0.2716
    127  ND2       55.6470  -52.4980  -10.3570 N.am  182  ASN182     -0.0877
    128  N         46.7840  -61.5650   -0.9720 N.3   279  LEU279     -0.1245
    129  CA        46.3430  -60.7160   -2.0690 C.3   279  LEU279      0.1561
    130  C         45.4500  -61.6220   -2.9300 C.2   279  LEU279      0.2260
    131  O         45.8120  -62.7660   -3.2140 O.2   279  LEU279     -0.2867
    132  CB        47.5500  -60.2220   -2.8890 C.3   279  LEU279      0.0270
    133  CG        47.2160  -59.2380   -4.0240 C.3   279  LEU279      0.0019
    134  CD1       46.7210  -57.9100   -3.4060 C.3   279  LEU279      0.0001
    135  CD2       48.4580  -58.9810   -4.9150 C.3   279  LEU279      0.0001
    136  N         42.2450  -61.8020   -6.2920 N.3   281  LYS281     -0.1245
    137  CA        41.7420  -61.1000   -7.4660 C.3   281  LYS281      0.1561
    138  C         40.3680  -61.5260   -7.9420 C.2   281  LYS281      0.2260
    139  O         39.9980  -62.6940   -7.8720 O.2   281  LYS281     -0.2867
    140  CB        42.6880  -61.2630   -8.6610 C.3   281  LYS281      0.0271
    141  CG        44.0400  -60.6080   -8.5590 C.3   281  LYS281      0.0035
    142  CD        44.7860  -60.7520   -9.8980 C.3   281  LYS281      0.0206
    143  CE        46.1920  -60.1530   -9.8320 C.3   281  LYS281      0.1093
    144  NZ        46.9740  -60.3510  -11.0890 N.3   281  LYS281     -0.1314
    145  N         44.1520  -47.1100  -13.4750 N.3   297  LYS297     -0.1245
    146  CA        44.2550  -47.3740  -12.0410 C.3   297  LYS297      0.1561
    147  C         43.1570  -46.6330  -11.2840 C.2   297  LYS297      0.2260
    148  O         43.1220  -45.4010  -11.2690 O.2   297  LYS297     -0.2867
    149  CB        45.6260  -46.9380  -11.5350 C.3   297  LYS297      0.0271
    150  CG        46.7800  -47.6050  -12.2560 C.3   297  LYS297      0.0035
    151  CD        46.8540  -49.0830  -11.9250 C.3   297  LYS297      0.0206
    152  CE        47.8060  -49.8280  -12.8580 C.3   297  LYS297      0.1093
    153  NZ        47.2030  -49.9950  -14.2220 N.3   297  LYS297     -0.1314
    154  N         41.2250  -52.1760   -5.2240 N.3   338  PHE338     -0.1241
    155  CA        42.0430  -51.6750   -6.3190 C.3   338  PHE338      0.1605
    156  C         41.6180  -52.2300   -7.6730 C.2   338  PHE338      0.2264
    157  O         41.7910  -53.4220   -7.9520 O.2   338  PHE338     -0.2867
    158  CB        43.5130  -52.0020   -6.0400 C.3   338  PHE338      0.0534
    159  CG        44.4370  -51.6590   -7.1630 C.ar  338  PHE338     -0.0203
    160  CD1       44.3620  -50.4240   -7.7930 C.ar  338  PHE338     -0.0042
    161  CD2       45.3930  -52.5710   -7.5920 C.ar  338  PHE338     -0.0042
    162  CE1       45.2320  -50.0950   -8.8430 C.ar  338  PHE338     -0.0003
    163  CE2       46.2670  -52.2560   -8.6380 C.ar  338  PHE338     -0.0003
    164  CZ        46.1860  -51.0150   -9.2640 C.ar  338  PHE338     -0.0000
    165  N         41.8880  -56.0970   -7.3140 N.3   354  LEU354     -0.1245
    166  CA        42.7410  -56.7110   -6.2950 C.3   354  LEU354      0.1561
    167  C         42.1190  -56.5170   -4.9060 C.2   354  LEU354      0.2260
    168  O         41.5130  -55.4810   -4.6270 O.2   354  LEU354     -0.2867
    169  CB        44.1450  -56.0890   -6.3280 C.3   354  LEU354      0.0270
    170  CG        45.1650  -56.7330   -7.2750 C.3   354  LEU354      0.0019
    171  CD1       44.6850  -56.6690   -8.7080 C.3   354  LEU354      0.0001
    172  CD2       46.5000  -56.0170   -7.1340 C.3   354  LEU354      0.0001
    173  N         51.7120  -64.5370   -0.8110 N.3   428  TYR428     -0.1227
    174  CA        53.1710  -64.4400   -0.7110 C.3   428  TYR428      0.1736
    175  C         53.6650  -63.8920    0.6330 C.2   428  TYR428      0.2596
    176  O         52.8650  -63.4640    1.4730 O.2   428  TYR428     -0.2718
    177  CB        53.7330  -63.6000   -1.8780 C.3   428  TYR428      0.0548
    178  CG        53.0330  -62.2760   -2.1080 C.ar  428  TYR428     -0.0200
    179  CD1       53.3470  -61.1520   -1.3430 C.ar  428  TYR428     -0.0009
    180  CD2       52.0290  -62.1580   -3.0700 C.ar  428  TYR428     -0.0009
    181  CE1       52.6810  -59.9510   -1.5280 C.ar  428  TYR428      0.0417
    182  CE2       51.3530  -60.9620   -3.2610 C.ar  428  TYR428      0.0417
    183  CZ        51.6840  -59.8590   -2.4870 C.ar  428  TYR428      0.1957
    184  OH        51.0090  -58.6700   -2.6750 O.3   428  TYR428     -0.2866
    185  N         54.9830  -63.9420    0.8360 N.am  429  SER429     -0.1938
    186  CA        55.6190  -63.4530    2.0660 C.3   429  SER429      0.2055
    187  C         55.0500  -62.0980    2.4210 C.2   429  SER429      0.2642
    188  O         54.9310  -61.2410    1.5470 O.2   429  SER429     -0.2714
    189  CB        57.1230  -63.2620    1.8690 C.3   429  SER429      0.2130
    190  OG        57.7540  -64.4100    1.3490 O.3   429  SER429     -0.2179
    191  N         54.7250  -61.8970    3.6960 N.am  430  ALA430     -0.1977
    192  CA        54.1870  -60.6170    4.1600 C.3   430  ALA430      0.1597
    193  C         54.4200  -60.4500    5.6700 C.2   430  ALA430      0.2287
    194  O         54.4040  -61.4260    6.4270 O.2   430  ALA430     -0.2864
    195  CB        52.7020  -60.5130    3.8260 C.3   430  ALA430      0.0319
    196  N         62.0580  -59.7740   -2.9970 N.3   464  ALA464     -0.1231
    197  CA        61.3250  -60.5380   -2.0000 C.3   464  ALA464      0.1694
    198  C         59.8340  -60.4770   -2.3390 C.2   464  ALA464      0.2593
    199  O         59.3030  -59.4080   -2.6500 O.2   464  ALA464     -0.2718
    200  CB        61.5730  -59.9530   -0.6100 C.3   464  ALA464      0.0304
    201  N         59.1650  -61.6260   -2.2830 N.am  465  GLY465     -0.1942
    202  CA        57.7470  -61.6720   -2.5950 C.3   465  GLY465      0.2014
    203  C         57.3870  -61.4530   -4.0660 C.2   465  GLY465      0.2639
    204  O         56.2200  -61.5710   -4.4380 O.2   465  GLY465     -0.2714
    205  N         58.3710  -61.1530   -4.9100 N.am  466  CYS466     -0.1967
    206  CA        58.1010  -60.9110   -6.3230 C.3   466  CYS466      0.1712
    207  C         58.4790  -62.0780   -7.2250 C.2   466  CYS466      0.2296
    208  O         59.2680  -62.9320   -6.8440 O.2   466  CYS466     -0.2864
    209  CB        58.8430  -59.6490   -6.7780 C.3   466  CYS466      0.0983
    210  SG        58.3270  -58.1610   -5.8800 S.3   466  CYS466     -0.0798
@<TRIPOS>BOND
     1   123   122    2
     2     9     8    2
     3   122   121    1
     4   153   152    1
     5     8     7    1
     6     8    12   am
     7    18    20   ar
     8    18    17   ar
     9    20    21   ar
    10   145   146    1
    11    10     7    1
    12    10    11    1
    13   121   120    1
    14   121   124    1
    15     7     6    1
    16    13    14    1
    17    13    12    1
    18    13    16    1
    19    14    15    2
    20     4     3    2
    21   152   151    1
    22    17    16    1
    23    17    19   ar
    24    21    23   ar
    25    21    19   ar
    26   124   125    1
    27   150   151    1
    28   150   149    1
    29     6     3   am
    30   146   149    1
    31   146   147    1
    32    23    25   ar
    33     3     2    1
    34    19    22   ar
    35    26    27    1
    36    29    28    2
    37   147   148    2
    38   144   143    1
    39   125   126    2
    40   125   127   am
    41    25    24   ar
    42    28    27    1
    43    22    24   ar
    44     2     5    1
    45     2     1    1
    46    27    30    1
    47    36    37    1
    48   142   143    1
    49   142   141    1
    50    37    38    1
    51    37    40    1
    52    38    39    2
    53   164   162   ar
    54   164   163   ar
    55    44    42   ar
    56    44    46   ar
    57    42    41   ar
    58    30    31    1
    59    32    31   ar
    60    32    34   ar
    61   162   160   ar
    62    31    33   ar
    63    34    35   ar
    64   171   170    1
    65   140   141    1
    66   140   137    1
    67   163   161   ar
    68    46    45   ar
    69    41    40    1
    70    41    43   ar
    71    33    35   ar
    72   157   156    2
    73   138   139    2
    74   138   137    1
    75   160   159   ar
    76    45    43   ar
    77   156   155    1
    78   161   159   ar
    79   137   136    1
    80   165   166    1
    81   170   172    1
    82   170   169    1
    83   207   208    2
    84   207   206    1
    85   113   112    2
    86   159   158    1
    87   112   111    1
    88   209   206    1
    89   209   210    1
    90   114   111    1
    91   114   115    1
    92   169   166    1
    93   206   205    1
    94   155   158    1
    95   155   154    1
    96   166   167    1
    97   116   115   ar
    98   116   118   ar
    99   111   110    1
   100   115   117   ar
   101   118   119   ar
   102   117   119   ar
   103   135   133    1
   104   205   203   am
   105   167   168    2
   106   204   203    2
   107    75    73   ar
   108    75    76   ar
   109   203   202    1
   110   133   134    1
   111   133   132    1
   112    78    76   ar
   113    78    80   ar
   114    73    72   ar
   115    76    74   ar
   116    62    61    2
   117   182   180   ar
   118   182   183   ar
   119   131   130    2
   120    80    79   ar
   121    63    64    1
   122    63    60    1
   123   180   178   ar
   124   196   197    1
   125   107   109   ar
   126   107   105   ar
   127    64    66    1
   128    64    65    1
   129   130   129    1
   130   132   129    1
   131    72    74   ar
   132    72    71    1
   133    74    77   ar
   134   184   183    1
   135   199   198    2
   136   202   201    1
   137    53    55   ar
   138    53    52   ar
   139   109   108   ar
   140   183   181   ar
   141    61    60    1
   142    61    67   am
   143    51    52    1
   144    51    48    1
   145   198   201   am
   146   198   197    1
   147    55    57   ar
   148    52    54   ar
   149    68    67    1
   150    68    71    1
   151    68    69    1
   152    79    77   ar
   153   105   104   ar
   154   178   177    1
   155   178   179   ar
   156   129   128    1
   157   197   200    1
   158   102   101    2
   159    60    59    1
   160   177   174    1
   161    57    58    1
   162    57    56   ar
   163    70    69    2
   164    54    56   ar
   165    50    49    2
   166   181   179   ar
   167    69    81   am
   168    48    49    1
   169    48    47    1
   170   108   106   ar
   171   101   100    1
   172   173   174    1
   173   104   106   ar
   174   104   103    1
   175   174   175    1
   176    81    82    1
   177   103   100    1
   178   100    99    1
   179   175   185   am
   180   175   176    2
   181    82    83    1
   182    82    85    1
   183    83    84    2
   184   185   186    1
   185   190   189    1
   186   188   187    2
   187   189   186    1
   188    88    86   ar
   189    88    90   ar
   190   186   187    1
   191    85    86    1
   192    86    87   ar
   193    90    89   ar
   194    87    89   ar
   195   187   191   am
   196   191   192    1
   197   195   192    1
   198    94    93    2
   199   192   193    1
   200    97    96   ar
   201    98    96   ar
   202    96    95    1
   203    93    92    1
   204   193   194    2
   205    92    95    1
   206    92    91    1
