@<TRIPOS>MOLECULE
tmp/3cnvC00.pdb
 132 129 0 0 0
SMALL
GASTEIGER

@<TRIPOS>ATOM
      1  N         55.5310   33.9510   47.5350 N.3     2  ARG2       -0.1231
      2  CA        55.3310   34.9460   48.5730 C.3     2  ARG2        0.1694
      3  C         56.4950   35.1030   49.5500 C.2     2  ARG2        0.2592
      4  O         56.8970   36.2230   49.8560 O.2     2  ARG2       -0.2718
      5  CB        53.9920   34.6270   49.3040 C.3     2  ARG2        0.0321
      6  CG        53.6510   35.5920   50.3930 C.3     2  ARG2        0.0489
      7  CD        53.4490   37.0390   49.8660 C.3     2  ARG2        0.2205
      8  NE        53.1750   37.9730   50.9580 N.pl3   2  ARG2       -0.0865
      9  CZ        54.1580   38.4980   51.6790 C.cat   2  ARG2        0.5346
     10  NH1       55.3960   38.1480   51.3730 N.pl3   2  ARG2        0.1354
     11  NH2       53.9340   39.3380   52.6860 N.pl3   2  ARG2        0.1354
     12  N         57.0440   33.9730   50.0500 N.am    3  TYR3       -0.1962
     13  CA        58.0550   34.0200   51.1230 C.3     3  TYR3        0.1771
     14  C         59.3530   33.3350   50.7410 C.2     3  TYR3        0.2619
     15  O         59.3550   32.3670   49.9520 O.2     3  TYR3       -0.2715
     16  CB        57.5840   33.3620   52.4220 C.3     3  TYR3        0.0574
     17  CG        56.2650   33.8480   53.0060 C.ar    3  TYR3       -0.0198
     18  CD1       55.9940   35.1640   53.1110 C.ar    3  TYR3       -0.0009
     19  CD2       55.3690   32.9760   53.5250 C.ar    3  TYR3       -0.0009
     20  CE1       54.8190   35.6550   53.6320 C.ar    3  TYR3        0.0417
     21  CE2       54.1400   33.4400   54.0990 C.ar    3  TYR3        0.0417
     22  CZ        53.8900   34.8050   54.1410 C.ar    3  TYR3        0.1957
     23  OH        52.7500   35.3780   54.6820 O.3     3  TYR3       -0.2866
     24  N         60.4280   33.9020   51.2680 N.am    4  ARG4       -0.1963
     25  CA        61.7470   33.3870   51.1220 C.3     4  ARG4        0.1729
     26  C         62.1100   32.5980   52.3750 C.2     4  ARG4        0.2616
     27  O         62.5660   31.3860   52.2970 O.2     4  ARG4       -0.2715
     28  CB        62.7620   34.5270   50.8410 C.3     4  ARG4        0.0348
     29  CG        64.1890   34.0570   50.7680 C.3     4  ARG4        0.0492
     30  CD        64.3640   33.2810   49.5590 C.3     4  ARG4        0.2205
     31  NE        65.6620   32.5970   49.4280 N.pl3   4  ARG4       -0.0865
     32  CZ        65.9250   31.3980   49.9250 C.cat   4  ARG4        0.5346
     33  NH1       65.0070   30.6830   50.5630 N.pl3   4  ARG4        0.1354
     34  NH2       67.1140   30.8850   49.7510 N.pl3   4  ARG4        0.1354
     35  N         61.9720   33.2350   53.5230 N.am    5  PHE5       -0.1960
     36  CA        62.4630   32.5870   54.7580 C.3     5  PHE5        0.1771
     37  C         61.4890   32.4930   55.8740 C.2     5  PHE5        0.2619
     38  O         61.6890   31.7450   56.8250 O.2     5  PHE5       -0.2715
     39  CB        63.6860   33.2780   55.3210 C.3     5  PHE5        0.0574
     40  CG        64.9110   33.1310   54.4860 C.ar    5  PHE5       -0.0200
     41  CD1       65.3810   31.8850   54.1420 C.ar    5  PHE5       -0.0042
     42  CD2       65.6550   34.2470   54.1260 C.ar    5  PHE5       -0.0042
     43  CE1       66.5000   31.7460   53.4360 C.ar    5  PHE5       -0.0003
     44  CE2       66.8730   34.0840   53.3970 C.ar    5  PHE5       -0.0003
     45  CZ        67.2500   32.8540   53.0230 C.ar    5  PHE5       -0.0000
     46  N         60.4090   33.2370   55.7470 N.am    6  LEU6       -0.1977
     47  CA        59.4160   33.3570   56.8340 C.3     6  LEU6        0.1596
     48  C         58.8010   32.0200   57.1510 C.2     6  LEU6        0.2287
     49  O         58.2450   31.4120   56.2540 O.2     6  LEU6       -0.2864
     50  CB        58.3220   34.3850   56.4130 C.3     6  LEU6        0.0297
     51  CG        57.2920   34.7140   57.5170 C.3     6  LEU6        0.0022
     52  CD1       57.9770   35.4490   58.6350 C.3     6  LEU6        0.0001
     53  CD2       56.1320   35.5320   56.9910 C.3     6  LEU6        0.0001
     54  N         52.8310   44.0160   55.1920 N.3    21  SER21      -0.1217
     55  CA        54.0370   44.7000   55.6900 C.3    21  SER21       0.1889
     56  C         53.7960   46.2140   55.7340 C.2    21  SER21       0.2288
     57  O         53.2360   46.8020   54.8380 O.2    21  SER21      -0.2866
     58  CB        55.2410   44.4630   54.7720 C.3    21  SER21       0.2089
     59  OG        56.4770   44.8770   55.4240 O.3    21  SER21      -0.2183
     60  N         60.1860   47.1780   60.2170 N.3    52  ARG52      -0.1245
     61  CA        58.8200   46.9760   59.6820 C.3    52  ARG52       0.1563
     62  C         57.9490   46.1060   60.5500 C.2    52  ARG52       0.2260
     63  O         58.4260   45.2990   61.3240 O.2    52  ARG52      -0.2867
     64  CB        58.8520   46.4500   58.2480 C.3    52  ARG52       0.0307
     65  CG        59.4170   45.2070   58.0550 C.3    52  ARG52       0.0489
     66  CD        58.3560   44.1100   58.1550 C.3    52  ARG52       0.2205
     67  NE        59.0350   42.9100   57.7760 N.pl3  52  ARG52      -0.0865
     68  CZ        59.1720   42.4710   56.5350 C.cat  52  ARG52       0.5346
     69  NH1       58.5480   43.0800   55.5460 N.pl3  52  ARG52       0.1354
     70  NH2       59.8720   41.3660   56.3180 N.pl3  52  ARG52       0.1354
     71  N         54.9780   43.2370   60.2770 N.3    54  LEU54      -0.1245
     72  CA        54.0610   42.3030   59.6280 C.3    54  LEU54       0.1561
     73  C         52.8350   42.0770   60.4580 C.2    54  LEU54       0.2260
     74  O         52.8790   41.8930   61.6930 O.2    54  LEU54      -0.2867
     75  CB        54.7440   40.9360   59.3780 C.3    54  LEU54       0.0270
     76  CG        55.9150   40.9700   58.4230 C.3    54  LEU54       0.0019
     77  CD1       56.4670   39.5090   58.3660 C.3    54  LEU54       0.0001
     78  CD2       55.6370   41.5580   56.9650 C.3    54  LEU54       0.0001
     79  N         55.9010   44.6940   46.5280 N.3    84  ALA84      -0.1231
     80  CA        56.7210   43.5050   46.7800 C.3    84  ALA84       0.1679
     81  C         57.0530   43.2260   48.2570 C.2    84  ALA84       0.2434
     82  O         57.3260   44.0810   49.0880 O.2    84  ALA84      -0.2733
     83  CB        58.0550   43.5000   45.9080 C.3    84  ALA84       0.0304
     84  N         57.1080   41.9680   48.5540 N.am   85  PRO85      -0.2718
     85  CA        57.8500   41.5410   49.7140 C.3    85  PRO85       0.1535
     86  C         59.2870   42.0390   49.6380 C.2    85  PRO85       0.2598
     87  O         59.8740   42.1830   48.5340 O.2    85  PRO85      -0.2715
     88  CB        57.7540   40.0210   49.6320 C.3    85  PRO85       0.0310
     89  CG        56.8630   39.6990   48.4810 C.3    85  PRO85       0.0237
     90  CD        56.7770   40.8720   47.6200 C.3    85  PRO85       0.0939
     91  N         59.8720   42.3330   50.7870 N.am   86  LEU86      -0.1964
     92  CA        61.2710   42.8220   50.7890 C.3    86  LEU86       0.1728
     93  C         62.2930   41.9440   50.0060 C.2    86  LEU86       0.2616
     94  O         63.0950   42.4700   49.2340 O.2    86  LEU86      -0.2715
     95  CB        61.7930   43.0140   52.2050 C.3    86  LEU86       0.0311
     96  CG        61.1240   44.1580   52.9900 C.3    86  LEU86       0.0022
     97  CD1       61.6510   44.2540   54.4310 C.3    86  LEU86       0.0001
     98  CD2       61.4120   45.4450   52.2640 C.3    86  LEU86       0.0001
     99  N         62.3480   40.6430   50.2860 N.am   87  TYR87      -0.1974
    100  CA        63.3370   39.7850   49.6090 C.3    87  TYR87       0.1639
    101  C         63.1290   39.8360   48.1260 C.2    87  TYR87       0.2290
    102  O         64.0750   39.8000   47.3540 O.2    87  TYR87      -0.2864
    103  CB        63.3960   38.3350   50.1240 C.3    87  TYR87       0.0560
    104  CG        64.0110   38.2150   51.4760 C.ar   87  TYR87      -0.0198
    105  CD1       65.3620   38.4890   51.6940 C.ar   87  TYR87      -0.0009
    106  CD2       63.2620   37.7540   52.5220 C.ar   87  TYR87      -0.0009
    107  CE1       65.9190   38.3610   52.9630 C.ar   87  TYR87       0.0417
    108  CE2       63.8000   37.5940   53.7850 C.ar   87  TYR87       0.0417
    109  CZ        65.1140   37.9050   54.0080 C.ar   87  TYR87       0.1957
    110  OH        65.5940   37.7320   55.2910 O.3    87  TYR87      -0.2866
    111  N         68.6380   36.5790   62.3260 N.3   130  ARG130     -0.1245
    112  CA        69.0160   35.9830   61.0270 C.3   130  ARG130      0.1563
    113  C         70.1870   36.7290   60.3730 C.2   130  ARG130      0.2260
    114  O         70.2390   37.9700   60.3660 O.2   130  ARG130     -0.2867
    115  CB        67.8020   36.0570   60.0990 C.3   130  ARG130      0.0307
    116  CG        67.9980   35.3840   58.7430 C.3   130  ARG130      0.0489
    117  CD        66.8640   35.5650   57.7940 C.3   130  ARG130      0.2205
    118  NE        65.6250   35.0810   58.3730 N.pl3 130  ARG130     -0.0865
    119  CZ        64.3920   35.4870   58.1240 C.cat 130  ARG130      0.5346
    120  NH1       64.1440   36.4450   57.2810 N.pl3 130  ARG130      0.1354
    121  NH2       63.4020   34.9000   58.7630 N.pl3 130  ARG130      0.1354
    122  N         68.8240   40.4540   60.0480 N.3   142  ARG142     -0.1245
    123  CA        67.4590   40.7690   60.4440 C.3   142  ARG142      0.1563
    124  C         67.1560   40.1540   61.8170 C.2   142  ARG142      0.2260
    125  O         67.4350   38.9590   62.0460 O.2   142  ARG142     -0.2867
    126  CB        66.4740   40.2170   59.3670 C.3   142  ARG142      0.0307
    127  CG        65.0010   40.5140   59.6500 C.3   142  ARG142      0.0489
    128  CD        64.0330   39.9350   58.6010 C.3   142  ARG142      0.2205
    129  NE        64.2960   40.3820   57.2400 N.pl3 142  ARG142     -0.0865
    130  CZ        63.4890   40.2350   56.2020 C.cat 142  ARG142      0.5346
    131  NH1       62.3640   39.5270   56.3110 N.pl3 142  ARG142      0.1354
    132  NH2       63.8580   40.7340   55.0230 N.pl3 142  ARG142      0.1354
@<TRIPOS>BOND
     1    83    80    1
     2    79    80    1
     3    80    81    1
     4   102   101    2
     5     1     2    1
     6    90    89    1
     7    90    84    1
     8   101   100    1
     9    81    84   am
    10    81    82    2
    11    89    88    1
    12    87    86    2
    13    84    85    1
    14     2     5    1
    15     2     3    1
    16    94    93    2
    17     5     6    1
    18    31    30    1
    19    31    32    2
    20     3     4    2
    21     3    12   am
    22    30    29    1
    23   100   103    1
    24   100    99    1
    25    88    85    1
    26    86    85    1
    27    86    91   am
    28    34    32    1
    29     7     6    1
    30     7     8    1
    31    32    33    1
    32    15    14    2
    33    93    99   am
    34    93    92    1
    35    12    13    1
    36   103   104    1
    37    14    13    1
    38    14    24   am
    39    29    28    1
    40    91    92    1
    41    92    95    1
    42    28    25    1
    43     8     9    2
    44    25    24    1
    45    25    26    1
    46    13    16    1
    47    10     9    1
    48   104   105   ar
    49   104   106   ar
    50     9    11    1
    51   105   107   ar
    52    95    96    1
    53    98    96    1
    54    27    26    2
    55    26    35   am
    56    16    17    1
    57   106   108   ar
    58   107   109   ar
    59    96    97    1
    60    17    18   ar
    61    17    19   ar
    62    45    44   ar
    63    45    43   ar
    64    18    20   ar
    65    44    42   ar
    66    43    41   ar
    67    35    36    1
    68    19    21   ar
    69    20    22   ar
    70   108   109   ar
    71   109   110    1
    72    21    22   ar
    73    42    40   ar
    74    22    23    1
    75    41    40   ar
    76    40    39    1
    77    36    39    1
    78    36    37    1
    79    58    59    1
    80    58    55    1
    81    57    56    2
    82   132   130    1
    83    54    55    1
    84    69    68    1
    85    55    56    1
    86    46    37   am
    87    46    47    1
    88    37    38    2
    89   130   131    1
    90   130   129    2
    91    49    48    2
    92    70    68    1
    93    50    47    1
    94    50    51    1
    95    68    67    2
    96    47    48    1
    97    78    76    1
    98    53    51    1
    99   129   128    1
   100   120   119    1
   101    51    52    1
   102    67    66    1
   103   117   118    1
   104   117   116    1
   105    65    66    1
   106    65    64    1
   107   119   118    2
   108   119   121    1
   109    64    61    1
   110    77    76    1
   111    76    75    1
   112   128   127    1
   113   116   115    1
   114   126   127    1
   115   126   123    1
   116    75    72    1
   117    72    71    1
   118    72    73    1
   119    61    60    1
   120    61    62    1
   121   122   123    1
   122   115   112    1
   123   114   113    2
   124   113   112    1
   125   123   124    1
   126    73    74    2
   127    62    63    2
   128   112   111    1
   129   124   125    2
