@<TRIPOS>MOLECULE
tmp/3co8A00.pdb
 108 102 0 0 0
SMALL
GASTEIGER

@<TRIPOS>ATOM
      1  N         21.4910   36.4640   53.5840 N.3    36  ALA36      -0.1245
      2  CA        22.0120   35.1690   53.1600 C.3    36  ALA36       0.1562
      3  C         22.3750   35.3060   51.6880 C.2    36  ALA36       0.2260
      4  O         21.5130   35.6210   50.8550 O.2    36  ALA36      -0.2867
      5  CB        20.9620   34.0800   53.3550 C.3    36  ALA36       0.0290
      6  N         24.3620   32.9150   50.0560 N.3    38  LYS38      -0.1245
      7  CA        24.8430   31.6070   49.6060 C.3    38  LYS38       0.1561
      8  C         24.3110   31.2810   48.2100 C.2    38  LYS38       0.2260
      9  O         23.3000   31.8490   47.7720 O.2    38  LYS38      -0.2867
     10  CB        24.4220   30.5040   50.5800 C.3    38  LYS38       0.0271
     11  CG        22.9630   30.0590   50.5020 C.3    38  LYS38       0.0035
     12  CD        22.4460   29.6990   51.8740 C.3    38  LYS38       0.0206
     13  CE        21.0060   29.2500   51.8330 C.3    38  LYS38       0.1093
     14  NZ        20.5240   28.9190   53.1870 N.3    38  LYS38      -0.1314
     15  N         21.5780   33.4710   45.9430 N.3    42  TYR42      -0.1241
     16  CA        20.3170   32.8470   45.5030 C.3    42  TYR42       0.1605
     17  C         20.1650   33.0320   43.9930 C.2    42  TYR42       0.2264
     18  O         19.0570   33.1580   43.4870 O.2    42  TYR42      -0.2867
     19  CB        19.0850   33.4280   46.2360 C.3    42  TYR42       0.0534
     20  CG        18.8700   32.9820   47.6690 C.ar   42  TYR42      -0.0201
     21  CD1       19.9520   32.8040   48.5540 C.ar   42  TYR42      -0.0009
     22  CD2       17.5620   32.7790   48.1650 C.ar   42  TYR42      -0.0009
     23  CE1       19.7440   32.4370   49.9070 C.ar   42  TYR42       0.0417
     24  CE2       17.3410   32.4120   49.5230 C.ar   42  TYR42       0.0417
     25  CZ        18.4430   32.2470   50.3770 C.ar   42  TYR42       0.1957
     26  OH        18.2510   31.9130   51.6950 O.3    42  TYR42      -0.2866
     27  N         27.7200   30.3430   53.1240 N.3    64  SER64      -0.1217
     28  CA        27.6960   28.9520   53.5730 C.3    64  SER64       0.1889
     29  C         29.0860   28.3690   53.7530 C.2    64  SER64       0.2288
     30  O         29.3410   27.6590   54.7280 O.2    64  SER64      -0.2866
     31  CB        26.9050   28.0790   52.6110 C.3    64  SER64       0.2089
     32  OG        25.5170   28.3010   52.7600 O.3    64  SER64      -0.2183
     33  N         27.9590   30.2110   57.7880 N.3    84  LEU84      -0.1245
     34  CA        26.9220   29.4120   58.4380 C.3    84  LEU84       0.1561
     35  C         27.1690   27.9160   58.4600 C.2    84  LEU84       0.2260
     36  O         26.6620   27.2080   59.3360 O.2    84  LEU84      -0.2867
     37  CB        25.5560   29.7210   57.8280 C.3    84  LEU84       0.0270
     38  CG        25.0050   31.0790   58.2700 C.3    84  LEU84       0.0019
     39  CD1       23.8620   31.4920   57.3820 C.3    84  LEU84       0.0001
     40  CD2       24.5760   31.0150   59.7320 C.3    84  LEU84       0.0001
     41  N         23.3010   30.0900   67.3840 N.3   162  PHE162     -0.1241
     42  CA        22.1390   29.9820   66.5110 C.3   162  PHE162      0.1605
     43  C         21.5790   28.5970   66.3030 C.2   162  PHE162      0.2264
     44  O         22.2050   27.5980   66.6290 O.2   162  PHE162     -0.2867
     45  CB        22.4460   30.5960   65.1150 C.3   162  PHE162      0.0534
     46  CG        23.2040   29.6900   64.1580 C.ar  162  PHE162     -0.0203
     47  CD1       22.5420   29.1090   63.0520 C.ar  162  PHE162     -0.0042
     48  CD2       24.5720   29.4330   64.3360 C.ar  162  PHE162     -0.0042
     49  CE1       23.2340   28.2760   62.1370 C.ar  162  PHE162     -0.0003
     50  CE2       25.2810   28.6050   63.4230 C.ar  162  PHE162     -0.0003
     51  CZ        24.6120   28.0250   62.3240 C.ar  162  PHE162     -0.0000
     52  N         18.5650   26.8000   63.1960 N.3   164  HIS164     -0.1241
     53  CA        17.8460   27.0590   61.9660 C.3   164  HIS164      0.1621
     54  C         16.4750   26.4010   62.0160 C.2   164  HIS164      0.2264
     55  O         16.3500   25.2280   62.3910 O.2   164  HIS164     -0.2867
     56  CB        18.6520   26.5590   60.7640 C.3   164  HIS164      0.0745
     57  CG        18.1520   27.0680   59.4490 C.ar  164  HIS164      0.0817
     58  ND1       17.7380   28.3710   59.2690 N.ar  164  HIS164     -0.2268
     59  CD2       17.9620   26.4440   58.2650 C.ar  164  HIS164      0.1154
     60  CE1       17.3080   28.5220   58.0290 C.ar  164  HIS164      0.1986
     61  NE2       17.4330   27.3700   57.3990 N.ar  164  HIS164     -0.2212
     62  N         14.9950   33.2520   60.3340 N.3   189  ASN189     -0.1225
     63  CA        15.1230   33.1940   58.8780 C.3   189  ASN189      0.1785
     64  C         13.8520   33.8830   58.3470 C.2   189  ASN189      0.2598
     65  O         13.0810   34.4330   59.1420 O.2   189  ASN189     -0.2718
     66  CB        15.2860   31.7510   58.3510 C.3   189  ASN189      0.1169
     67  CG        14.1390   30.8150   58.7480 C.2   189  ASN189      0.2627
     68  OD1       13.2960   31.1370   59.5870 O.2   189  ASN189     -0.2716
     69  ND2       14.1170   29.6390   58.1330 N.am  189  ASN189     -0.0877
     70  N         13.6100   33.8400   57.0390 N.am  190  SER190     -0.1938
     71  CA        12.4400   34.5100   56.4490 C.3   190  SER190      0.2055
     72  C         11.0820   34.1850   57.0580 C.2   190  SER190      0.2643
     73  O         10.3340   35.1030   57.4210 O.2   190  SER190     -0.2714
     74  CB        12.4020   34.3040   54.9410 C.3   190  SER190      0.2130
     75  OG        13.4610   35.0090   54.3110 O.3   190  SER190     -0.2179
     76  N         10.8140   32.8890   57.2380 N.am  191  GLY191     -0.1954
     77  CA         9.5600   32.4310   57.8160 C.3   191  GLY191      0.1869
     78  C          9.3670   32.9040   59.2450 C.2   191  GLY191      0.2309
     79  O          8.3270   33.4820   59.5740 O.2   191  GLY191     -0.2863
     80  N         18.2550   36.8990   60.0670 N.3   207  ARG207     -0.1231
     81  CA        19.2540   36.2210   59.2240 C.3   207  ARG207      0.1694
     82  C         18.4010   35.6540   58.0920 C.2   207  ARG207      0.2592
     83  O         18.0060   34.4890   58.1000 O.2   207  ARG207     -0.2718
     84  CB        19.9270   35.1060   60.0350 C.3   207  ARG207      0.0321
     85  CG        21.0850   34.4120   59.3400 C.3   207  ARG207      0.0489
     86  CD        21.5480   33.2180   60.1510 C.3   207  ARG207      0.2205
     87  NE        20.7010   32.0340   60.0160 N.pl3 207  ARG207     -0.0865
     88  CZ        19.9410   31.5040   60.9780 C.cat 207  ARG207      0.5346
     89  NH1       19.8910   32.0450   62.1860 N.pl3 207  ARG207      0.1354
     90  NH2       19.2310   30.4130   60.7240 N.pl3 207  ARG207      0.1354
     91  N         18.1580   36.5000   57.0970 N.am  208  VAL208     -0.1966
     92  CA        17.2490   36.1840   56.0030 C.3   208  VAL208      0.1727
     93  C         17.7770   36.1640   54.5770 C.2   208  VAL208      0.2617
     94  O         18.7770   36.8060   54.2520 O.2   208  VAL208     -0.2715
     95  CB        16.0660   37.1850   56.0340 C.3   208  VAL208      0.0290
     96  CG1       15.2550   37.0330   57.3100 C.3   208  VAL208      0.0023
     97  CG2       16.5960   38.6080   55.9710 C.3   208  VAL208      0.0023
     98  N         17.0310   35.4620   53.7280 N.am  209  GLY209     -0.1940
     99  CA        17.3540   35.3730   52.3200 C.3   209  GLY209      0.2014
    100  C         16.1120   35.6600   51.5010 C.2   209  GLY209      0.2639
    101  O         15.9160   36.7900   51.0320 O.2   209  GLY209     -0.2714
    102  N         15.2520   34.6450   51.4000 N.am  210  THR210     -0.1950
    103  CA        13.9990   34.6580   50.6330 C.3   210  THR210      0.1897
    104  C         13.1820   35.9570   50.6060 C.2   210  THR210      0.2313
    105  O         12.9440   36.5030   49.5260 O.2   210  THR210     -0.2863
    106  CB        13.1000   33.4520   51.0550 C.3   210  THR210      0.1794
    107  OG1       13.7990   32.2290   50.7970 O.3   210  THR210     -0.2208
    108  CG2       11.7780   33.4200   50.2900 C.3   210  THR210      0.0378
@<TRIPOS>BOND
     1    18    17    2
     2    17    16    1
     3    16    15    1
     4    16    19    1
     5    19    20    1
     6    20    22   ar
     7    20    21   ar
     8     9     8    2
     9    22    24   ar
    10     8     7    1
    11    21    23   ar
    12    24    25   ar
    13   105   104    2
    14     7     6    1
    15     7    10    1
    16    23    25   ar
    17   108   106    1
    18    25    26    1
    19    11    10    1
    20    11    12    1
    21   104   103    1
    22   103   106    1
    23   103   102    1
    24   107   106    1
    25     4     3    2
    26   101   100    2
    27   102   100   am
    28   100    99    1
    29     3     2    1
    30    13    12    1
    31    13    14    1
    32    99    98    1
    33    31    32    1
    34    31    28    1
    35    27    28    1
    36     2     5    1
    37     2     1    1
    38    28    29    1
    39    98    93   am
    40    29    30    2
    41    94    93    2
    42    75    74    1
    43    93    92    1
    44    74    71    1
    45    97    95    1
    46    92    95    1
    47    92    91    1
    48    95    96    1
    49    71    70    1
    50    71    72    1
    51    70    64   am
    52    72    76   am
    53    72    73    2
    54    91    82   am
    55    76    77    1
    56    39    38    1
    57    61    60   ar
    58    61    59   ar
    59    33    34    1
    60    77    78    1
    61    37    38    1
    62    37    34    1
    63    60    58   ar
    64    82    83    2
    65    82    81    1
    66    69    67   am
    67    59    57   ar
    68    38    40    1
    69    64    63    1
    70    64    65    2
    71    66    67    1
    72    66    63    1
    73    34    35    1
    74    35    36    2
    75    67    68    2
    76    63    62    1
    77    81    84    1
    78    81    80    1
    79    78    79    2
    80    58    57   ar
    81    85    84    1
    82    85    86    1
    83    57    56    1
    84    87    86    1
    85    87    88    2
    86    90    88    1
    87    56    53    1
    88    88    89    1
    89    53    54    1
    90    53    52    1
    91    54    55    2
    92    49    51   ar
    93    49    47   ar
    94    51    50   ar
    95    47    46   ar
    96    50    48   ar
    97    46    48   ar
    98    46    45    1
    99    45    42    1
   100    43    42    1
   101    43    44    2
   102    42    41    1
