@<TRIPOS>MOLECULE
tmp/3cogD02.pdb
 80 73 0 0 0
SMALL
GASTEIGER

@<TRIPOS>ATOM
      1  N        -18.3800   23.2710  -58.7870 N.3    82  LEU82      -0.1245
      2  CA       -18.6390   22.5500  -60.0360 C.3    82  LEU82       0.1561
      3  C        -20.1310   22.5670  -60.4050 C.2    82  LEU82       0.2260
      4  O        -20.4920   22.6530  -61.5890 O.2    82  LEU82      -0.2867
      5  CB       -18.1300   21.0980  -59.9780 C.3    82  LEU82       0.0270
      6  CG       -16.6290   20.8030  -60.1810 C.3    82  LEU82       0.0019
      7  CD1      -16.4010   19.3000  -60.2440 C.3    82  LEU82       0.0001
      8  CD2      -16.0600   21.4370  -61.4460 C.3    82  LEU82       0.0001
      9  N         -8.9040   25.2360  -62.7890 N.3   105  TYR105     -0.1241
     10  CA        -9.2130   24.1380  -61.9040 C.3   105  TYR105      0.1605
     11  C         -9.4090   22.8670  -62.7450 C.2   105  TYR105      0.2264
     12  O        -10.1980   22.8680  -63.6950 O.2   105  TYR105     -0.2867
     13  CB       -10.4870   24.4300  -61.0960 C.3   105  TYR105      0.0534
     14  CG       -10.8440   23.2710  -60.2190 C.ar  105  TYR105     -0.0201
     15  CD1       -9.9110   22.7590  -59.3210 C.ar  105  TYR105     -0.0009
     16  CD2      -12.0880   22.6540  -60.3110 C.ar  105  TYR105     -0.0009
     17  CE1      -10.1980   21.6750  -58.5490 C.ar  105  TYR105      0.0417
     18  CE2      -12.3910   21.5890  -59.5260 C.ar  105  TYR105      0.0417
     19  CZ       -11.4430   21.0990  -58.6470 C.ar  105  TYR105      0.1957
     20  OH       -11.7270   20.0100  -57.8750 O.3   105  TYR105     -0.2866
     21  N        -11.0700   20.2030  -62.3670 N.3   107  GLY107     -0.1225
     22  CA       -12.5030   19.8490  -62.5060 C.3   107  GLY107      0.1811
     23  C        -13.2840   20.6740  -63.5200 C.2   107  GLY107      0.2280
     24  O        -14.2630   20.1860  -64.1000 O.2   107  GLY107     -0.2866
     25  N        -12.1560   19.2920  -66.9060 N.3   110  ARG110     -0.1245
     26  CA       -12.8190   18.0100  -67.1040 C.3   110  ARG110      0.1563
     27  C        -14.2820   18.1500  -67.5470 C.2   110  ARG110      0.2260
     28  O        -14.6970   17.5160  -68.5230 O.2   110  ARG110     -0.2867
     29  CB       -12.7180   17.2060  -65.8100 C.3   110  ARG110      0.0307
     30  CG       -13.5130   15.9110  -65.7850 C.3   110  ARG110      0.0489
     31  CD       -13.3020   15.2300  -64.4590 C.3   110  ARG110      0.2205
     32  NE       -13.8550   16.0190  -63.3570 N.pl3 110  ARG110     -0.0865
     33  CZ       -13.3550   16.0620  -62.1220 C.cat 110  ARG110      0.5346
     34  NH1      -12.2950   15.3330  -61.8070 N.pl3 110  ARG110      0.1354
     35  NH2      -13.9180   16.8280  -61.1890 N.pl3 110  ARG110      0.1354
     36  N        -13.6060   26.8870  -50.7580 N.3   203  LYS203     -0.1245
     37  CA       -12.2700   27.3670  -50.4950 C.3   203  LYS203      0.1561
     38  C        -12.3520   28.5690  -49.5190 C.2   203  LYS203      0.2260
     39  O        -12.7170   28.3750  -48.3460 O.2   203  LYS203     -0.2867
     40  CB       -11.5780   27.6750  -51.8480 C.3   203  LYS203      0.0271
     41  CG       -11.7920   26.5710  -52.9410 C.3   203  LYS203      0.0035
     42  CD       -11.2930   25.2070  -52.5280 C.3   203  LYS203      0.0206
     43  CE       -11.7000   24.1080  -53.5040 C.3   203  LYS203      0.1093
     44  NZ       -11.4340   24.4470  -54.9200 N.3   203  LYS203     -0.1314
     45  N         -5.5590   18.0000  -50.9330 N.3   330  GLU330     -0.1231
     46  CA        -6.1840   18.7940  -51.9740 C.3   330  GLU330      0.1699
     47  C         -7.0330   19.8590  -51.2950 C.2   330  GLU330      0.2592
     48  O         -7.2290   19.8180  -50.0570 O.2   330  GLU330     -0.2718
     49  CB        -7.0510   17.9240  -52.8840 C.3   330  GLU330      0.0402
     50  CG        -6.2740   16.8660  -53.6290 C.3   330  GLU330      0.1161
     51  CD        -7.0270   16.2700  -54.8130 C.2   330  GLU330      0.3649
     52  OE1       -6.4010   15.4770  -55.5320 O.co2 330  GLU330     -0.2457
     53  OE2       -8.2140   16.6090  -55.0440 O.co2 330  GLU330     -0.2457
     54  N         -7.5470   20.7720  -52.1240 N.am  331  SER331     -0.1952
     55  CA        -8.3220   21.9510  -51.7080 C.3   331  SER331      0.1924
     56  C         -7.4030   23.0810  -51.2810 C.2   331  SER331      0.2314
     57  O         -6.1770   22.9460  -51.3000 O.2   331  SER331     -0.2863
     58  CB        -9.3700   21.6600  -50.6240 C.3   331  SER331      0.2116
     59  OG       -10.4490   22.5920  -50.7570 O.3   331  SER331     -0.2180
     60  N         -2.1520   15.4120  -58.2570 N.3   345  MET345     -0.1230
     61  CA        -3.2770   15.5190  -57.3560 C.3   345  MET345      0.1702
     62  C         -4.4280   16.2830  -58.0310 C.2   345  MET345      0.2593
     63  O         -5.1360   15.6970  -58.8590 O.2   345  MET345     -0.2718
     64  CB        -2.7920   16.1480  -56.0480 C.3   345  MET345      0.0401
     65  CG        -1.7900   15.2530  -55.3310 C.3   345  MET345      0.0596
     66  SD        -0.9620   15.9490  -53.9150 S.3   345  MET345     -0.1393
     67  CE        -2.2850   16.2040  -52.7210 C.3   345  MET345      0.0692
     68  N         -4.5890   17.5770  -57.7460 N.am  346  THR346     -0.1953
     69  CA        -5.7900   18.3210  -58.2050 C.3   346  THR346      0.1897
     70  C         -5.9610   18.4520  -59.7150 C.2   346  THR346      0.2313
     71  O         -7.0720   18.6790  -60.1650 O.2   346  THR346     -0.2863
     72  CB        -5.8620   19.7680  -57.6420 C.3   346  THR346      0.1794
     73  OG1       -4.6980   20.5230  -58.0470 O.3   346  THR346     -0.2208
     74  CG2       -6.0160   19.7490  -56.1360 C.3   346  THR346      0.0378
     75  N         -6.6740   15.3740  -63.5640 N.3   349  SER349     -0.1217
     76  CA        -7.8060   15.4130  -64.5240 C.3   349  SER349      0.1889
     77  C         -7.5450   16.1880  -65.8300 C.2   349  SER349      0.2288
     78  O         -8.3390   16.1210  -66.7810 O.2   349  SER349     -0.2866
     79  CB        -9.0120   16.0600  -63.8170 C.3   349  SER349      0.2089
     80  OG        -8.5960   17.2060  -63.0680 O.3   349  SER349     -0.2183
@<TRIPOS>BOND
     1    28    27    2
     2    27    26    1
     3    26    25    1
     4    26    29    1
     5    78    77    2
     6    77    76    1
     7    29    30    1
     8    30    31    1
     9    76    79    1
    10    76    75    1
    11    31    32    1
    12    24    23    2
    13    79    80    1
    14    12    11    2
    15    23    22    1
    16    32    33    2
    17     9    10    1
    18    11    10    1
    19    22    21    1
    20    33    34    1
    21    33    35    1
    22    10    13    1
    23     4     3    2
    24     8     6    1
    25    13    14    1
    26     3     2    1
    27    16    14   ar
    28    16    18   ar
    29     7     6    1
    30    14    15   ar
    31     6     5    1
    32    71    70    2
    33     2     5    1
    34     2     1    1
    35    70    69    1
    36    18    19   ar
    37    15    17   ar
    38    63    62    2
    39    19    17   ar
    40    19    20    1
    41    60    61    1
    42    69    68    1
    43    69    72    1
    44    73    72    1
    45    62    68   am
    46    62    61    1
    47    72    74    1
    48    61    64    1
    49    64    65    1
    50    52    51   ar
    51    65    66    1
    52    53    51   ar
    53    44    43    1
    54    51    50    1
    55    66    67    1
    56    50    49    1
    57    43    42    1
    58    41    42    1
    59    41    40    1
    60    49    46    1
    61    54    55    1
    62    54    47   am
    63    46    47    1
    64    46    45    1
    65    40    37    1
    66    55    56    1
    67    55    58    1
    68    57    56    2
    69    47    48    2
    70    36    37    1
    71    59    58    1
    72    37    38    1
    73    38    39    2
