@<TRIPOS>MOLECULE
tmp/3cogD01.pdb
 132 121 0 0 0
SMALL
GASTEIGER

@<TRIPOS>ATOM
      1  N        -21.9960   22.9470  -54.9750 N.3    80  SER80      -0.1202
      2  CA       -20.5370   22.9710  -55.1740 C.3    80  SER80       0.2020
      3  C        -20.1740   24.0280  -56.1880 C.2    80  SER80       0.2619
      4  O        -21.0340   24.4900  -56.9480 O.2    80  SER80      -0.2717
      5  CB       -19.9870   21.6030  -55.6240 C.3    80  SER80       0.2103
      6  OG       -20.5000   21.1880  -56.8870 O.3    80  SER80      -0.2182
      7  N        -18.9020   24.4130  -56.2200 N.am   81  GLY81      -0.1942
      8  CA       -18.4080   25.2320  -57.3420 C.3    81  GLY81       0.2014
      9  C        -18.6350   24.5720  -58.6980 C.2    81  GLY81       0.2638
     10  O        -19.0430   25.2320  -59.6810 O.2    81  GLY81      -0.2714
     11  N        -18.3800   23.2710  -58.7870 N.am   82  LEU82      -0.1977
     12  CA       -18.6390   22.5500  -60.0360 C.3    82  LEU82       0.1596
     13  C        -20.1310   22.5670  -60.4050 C.2    82  LEU82       0.2287
     14  O        -20.4920   22.6530  -61.5890 O.2    82  LEU82      -0.2864
     15  CB       -18.1300   21.0980  -59.9780 C.3    82  LEU82       0.0297
     16  CG       -16.6290   20.8030  -60.1810 C.3    82  LEU82       0.0022
     17  CD1      -16.4010   19.3000  -60.2440 C.3    82  LEU82       0.0001
     18  CD2      -16.0600   21.4370  -61.4460 C.3    82  LEU82       0.0001
     19  N        -20.8530   25.8850  -61.9750 N.3    85  THR85      -0.1218
     20  CA       -20.3520   25.8300  -63.3680 C.3    85  THR85       0.1862
     21  C        -21.3200   25.1070  -64.3510 C.2    85  THR85       0.2287
     22  O        -21.6020   25.5790  -65.4510 O.2    85  THR85      -0.2866
     23  CB       -18.9840   25.1070  -63.3660 C.3    85  THR85       0.1770
     24  OG1      -18.1180   25.7730  -62.4660 O.3    85  THR85      -0.2211
     25  CG2      -18.3230   25.1060  -64.7550 C.3    85  THR85       0.0375
     26  N         -8.9040   25.2360  -62.7890 N.3   105  TYR105     -0.1241
     27  CA        -9.2130   24.1380  -61.9040 C.3   105  TYR105      0.1605
     28  C         -9.4090   22.8670  -62.7450 C.2   105  TYR105      0.2264
     29  O        -10.1980   22.8680  -63.6950 O.2   105  TYR105     -0.2867
     30  CB       -10.4870   24.4300  -61.0960 C.3   105  TYR105      0.0534
     31  CG       -10.8440   23.2710  -60.2190 C.ar  105  TYR105     -0.0201
     32  CD1       -9.9110   22.7590  -59.3210 C.ar  105  TYR105     -0.0009
     33  CD2      -12.0880   22.6540  -60.3110 C.ar  105  TYR105     -0.0009
     34  CE1      -10.1980   21.6750  -58.5490 C.ar  105  TYR105      0.0417
     35  CE2      -12.3910   21.5890  -59.5260 C.ar  105  TYR105      0.0417
     36  CZ       -11.4430   21.0990  -58.6470 C.ar  105  TYR105      0.1957
     37  OH       -11.7270   20.0100  -57.8750 O.3   105  TYR105     -0.2866
     38  N        -12.8710   21.9210  -63.7480 N.3   108  THR108     -0.1218
     39  CA       -13.5090   22.7860  -64.7470 C.3   108  THR108      0.1862
     40  C        -13.1310   22.3200  -66.1510 C.2   108  THR108      0.2287
     41  O        -14.0000   22.1990  -67.0250 O.2   108  THR108     -0.2866
     42  CB       -13.1260   24.2740  -64.5620 C.3   108  THR108      0.1770
     43  OG1      -13.4940   24.7000  -63.2410 O.3   108  THR108     -0.2211
     44  CG2      -13.8280   25.1510  -65.5680 C.3   108  THR108      0.0375
     45  N        -10.6200   32.1750  -65.0660 N.3   148  GLU148     -0.1245
     46  CA       -10.1140   32.2550  -63.7220 C.3   148  GLU148      0.1567
     47  C         -8.9990   33.3050  -63.7250 C.2   148  GLU148      0.2260
     48  O         -8.2060   33.3510  -64.6540 O.2   148  GLU148     -0.2867
     49  CB        -9.4870   30.9280  -63.3080 C.3   148  GLU148      0.0388
     50  CG       -10.4590   29.8700  -62.8510 C.3   148  GLU148      0.1160
     51  CD        -9.7560   28.5980  -62.4520 C.2   148  GLU148      0.3649
     52  OE1       -8.5940   28.7080  -62.0110 O.co2 148  GLU148     -0.2457
     53  OE2      -10.3560   27.5080  -62.5920 O.co2 148  GLU148     -0.2457
     54  N         -5.7540   28.6470  -61.5170 N.3   152  ASN152     -0.1240
     55  CA        -5.4070   27.5320  -60.6700 C.3   152  ASN152      0.1653
     56  C         -4.7980   26.4550  -61.5660 C.2   152  ASN152      0.2266
     57  O         -5.5120   25.9120  -62.4200 O.2   152  ASN152     -0.2867
     58  CB        -6.6870   27.0230  -59.9830 C.3   152  ASN152      0.1155
     59  CG        -6.4160   25.9470  -58.9700 C.2   152  ASN152      0.2627
     60  OD1       -5.2590   25.5300  -58.7930 O.2   152  ASN152     -0.2716
     61  ND2       -7.4810   25.4430  -58.3270 N.am  152  ASN152     -0.0877
     62  N        -14.3430   33.2570  -62.3800 N.3   178  ASP178     -0.1239
     63  CA       -14.2550   32.3920  -61.2200 C.3   178  ASP178      0.1674
     64  C        -13.2460   33.0510  -60.3230 C.2   178  ASP178      0.2266
     65  O        -12.0380   33.0600  -60.5970 O.2   178  ASP178     -0.2867
     66  CB       -13.8170   30.9980  -61.6650 C.3   178  ASP178      0.1410
     67  CG       -13.5730   30.0480  -60.5170 C.2   178  ASP178      0.3668
     68  OD1      -13.4050   30.4680  -59.3630 O.co2 178  ASP178     -0.2456
     69  OD2      -13.5560   28.8370  -60.7830 O.co2 178  ASP178     -0.2456
     70  N        -12.7190   32.4350  -57.0730 N.3   180  THR180     -0.1203
     71  CA       -12.4040   31.5910  -55.9240 C.3   180  THR180      0.1994
     72  C        -11.1070   31.9370  -55.1900 C.2   180  THR180      0.2617
     73  O        -11.0810   31.9550  -53.9510 O.2   180  THR180     -0.2717
     74  CB       -12.3280   30.1450  -56.3950 C.3   180  THR180      0.1784
     75  OG1      -13.6210   29.7540  -56.8670 O.3   180  THR180     -0.2211
     76  CG2      -11.8140   29.1790  -55.2810 C.3   180  THR180      0.0376
     77  N        -10.0420   32.1960  -55.9440 N.am  181  PHE181     -0.1975
     78  CA        -8.7240   32.4720  -55.3560 C.3   181  PHE181      0.1639
     79  C         -8.7090   33.8010  -54.6340 C.2   181  PHE181      0.2290
     80  O         -8.1560   33.9030  -53.5380 O.2   181  PHE181     -0.2864
     81  CB        -7.6240   32.4620  -56.4380 C.3   181  PHE181      0.0560
     82  CG        -6.9170   31.1410  -56.6150 C.ar  181  PHE181     -0.0200
     83  CD1       -7.5480   29.9250  -56.3580 C.ar  181  PHE181     -0.0042
     84  CD2       -5.6220   31.1140  -57.1190 C.ar  181  PHE181     -0.0042
     85  CE1       -6.8690   28.7150  -56.5510 C.ar  181  PHE181     -0.0003
     86  CE2       -4.9470   29.9080  -57.3210 C.ar  181  PHE181     -0.0003
     87  CZ        -5.5690   28.7210  -57.0400 C.ar  181  PHE181     -0.0000
     88  N        -18.1920   34.1420  -59.9470 N.3   198  MET198     -0.1245
     89  CA       -18.4610   32.8190  -59.4230 C.3   198  MET198      0.1570
     90  C        -17.4070   32.3860  -58.4060 C.2   198  MET198      0.2261
     91  O        -16.2360   32.7920  -58.4940 O.2   198  MET198     -0.2867
     92  CB       -18.5810   31.8350  -60.6010 C.3   198  MET198      0.0387
     93  CG       -18.6060   30.3360  -60.2700 C.3   198  MET198      0.0595
     94  SD       -16.9460   29.6640  -60.1090 S.3   198  MET198     -0.1393
     95  CE       -17.3140   28.0220  -59.4570 C.3   198  MET198      0.0692
     96  N        -16.0720   28.7770  -55.9850 N.3   200  SER200     -0.1217
     97  CA       -16.0880   27.6260  -55.1380 C.3   200  SER200      0.1889
     98  C        -16.0010   28.2120  -53.7110 C.2   200  SER200      0.2288
     99  O        -14.9610   28.6900  -53.2750 O.2   200  SER200     -0.2866
    100  CB       -14.9220   26.7010  -55.4470 C.3   200  SER200      0.2089
    101  OG       -14.8670   25.6570  -54.4920 O.3   200  SER200     -0.2183
    102  N        -16.3380   26.5160  -51.1840 N.3   202  THR202     -0.1203
    103  CA       -15.5590   25.4660  -50.5210 C.3   202  THR202      0.1994
    104  C        -14.1610   25.9190  -50.0550 C.2   202  THR202      0.2617
    105  O        -13.6220   25.4110  -49.0790 O.2   202  THR202     -0.2717
    106  CB       -15.3450   24.2940  -51.4970 C.3   202  THR202      0.1784
    107  OG1      -16.5830   24.0120  -52.1870 O.3   202  THR202     -0.2211
    108  CG2      -14.8380   23.0490  -50.7590 C.3   202  THR202      0.0376
    109  N        -13.6060   26.8870  -50.7580 N.am  203  LYS203     -0.1979
    110  CA       -12.2700   27.3670  -50.4950 C.3   203  LYS203      0.1596
    111  C        -12.3520   28.5690  -49.5190 C.2   203  LYS203      0.2287
    112  O        -12.7170   28.3750  -48.3460 O.2   203  LYS203     -0.2864
    113  CB       -11.5780   27.6750  -51.8480 C.3   203  LYS203      0.0298
    114  CG       -11.7920   26.5710  -52.9410 C.3   203  LYS203      0.0038
    115  CD       -11.2930   25.2070  -52.5280 C.3   203  LYS203      0.0206
    116  CE       -11.7000   24.1080  -53.5040 C.3   203  LYS203      0.1093
    117  NZ       -11.4340   24.4470  -54.9200 N.3   203  LYS203     -0.1314
    118  N        -18.7440   22.2430  -48.7900 N.3   212  VAL212     -0.1245
    119  CA       -18.6100   22.1960  -50.2260 C.3   212  VAL212      0.1561
    120  C        -19.7760   23.0060  -50.7770 C.2   212  VAL212      0.2260
    121  O        -20.9210   22.7320  -50.4380 O.2   212  VAL212     -0.2867
    122  CB       -18.6400   20.7270  -50.7350 C.3   212  VAL212      0.0252
    123  CG1      -18.8000   20.6790  -52.2730 C.3   212  VAL212      0.0019
    124  CG2      -17.3810   19.9360  -50.2410 C.3   212  VAL212      0.0019
    125  N         -8.0130   24.2090  -50.9310 N.3   332  LEU332     -0.1245
    126  CA        -7.2960   25.4410  -50.5850 C.3   332  LEU332      0.1561
    127  C         -8.2260   26.4080  -49.8870 C.2   332  LEU332      0.2260
    128  O         -9.4230   26.1840  -49.8470 O.2   332  LEU332     -0.2867
    129  CB        -6.7780   26.1410  -51.8460 C.3   332  LEU332      0.0270
    130  CG        -7.8600   26.5530  -52.8510 C.3   332  LEU332      0.0019
    131  CD1       -7.9590   28.0890  -53.0180 C.3   332  LEU332      0.0001
    132  CD2       -7.6380   25.8260  -54.1940 C.3   332  LEU332      0.0001
@<TRIPOS>BOND
     1    41    40    2
     2    40    39    1
     3    44    42    1
     4    22    21    2
     5    45    46    1
     6    25    23    1
     7    39    42    1
     8    39    38    1
     9    48    47    2
    10    42    43    1
    11    21    20    1
    12    47    46    1
    13    46    49    1
    14    29    28    2
    15    20    23    1
    16    20    19    1
    17    23    24    1
    18    49    50    1
    19    50    51    1
    20    26    27    1
    21    28    27    1
    22    53    51   ar
    23    51    52   ar
    24    57    56    2
    25    62    63    1
    26    27    30    1
    27    66    63    1
    28    66    67    1
    29    14    13    2
    30    56    55    1
    31    54    55    1
    32    18    16    1
    33    63    64    1
    34    30    31    1
    35    69    67   ar
    36    55    58    1
    37    92    93    1
    38    92    89    1
    39    65    64    2
    40    67    68   ar
    41    13    12    1
    42    33    31   ar
    43    33    35   ar
    44    93    94    1
    45    17    16    1
    46    31    32   ar
    47    16    15    1
    48    94    95    1
    49    12    15    1
    50    12    11    1
    51    58    59    1
    52    88    89    1
    53    10     9    2
    54    35    36   ar
    55    89    90    1
    56    32    34   ar
    57    59    60    2
    58    59    61   am
    59    11     9   am
    60     9     8    1
    61    36    34   ar
    62    36    37    1
    63    91    90    2
    64     8     7    1
    65    86    84   ar
    66    86    87   ar
    67    84    82   ar
    68    70    71    1
    69    87    85   ar
    70     4     3    2
    71     6     5    1
    72    75    74    1
    73    82    81    1
    74    82    83   ar
    75    85    83   ar
    76    81    78    1
    77    74    71    1
    78    74    76    1
    79     7     3   am
    80     3     2    1
    81    96    97    1
    82    77    78    1
    83    77    72   am
    84    71    72    1
    85     5     2    1
    86   100    97    1
    87   100   101    1
    88    78    79    1
    89    72    73    2
    90     2     1    1
    91    97    98    1
    92   117   116    1
    93    79    80    2
    94   132   130    1
    95    98    99    2
    96   116   115    1
    97   131   130    1
    98   114   115    1
    99   114   113    1
   100   130   129    1
   101   123   122    1
   102   107   106    1
   103   113   110    1
   104   129   126    1
   105   106   108    1
   106   106   103    1
   107   102   103    1
   108   125   126    1
   109   120   121    2
   110   120   119    1
   111   109   110    1
   112   109   104   am
   113   122   124    1
   114   122   119    1
   115   126   127    1
   116   103   104    1
   117   110   111    1
   118   119   118    1
   119   104   105    2
   120   127   128    2
   121   111   112    2
