@<TRIPOS>MOLECULE
tmp/3cohA00.pdb
 140 133 0 0 0
SMALL
GASTEIGER

@<TRIPOS>ATOM
      1  N        -10.1610   63.5770   43.7380 N.3    11  PRO11      -0.2102
      2  CA        -9.3330   63.4530   44.9290 C.3    11  PRO11       0.1504
      3  C         -8.0390   62.7350   44.5880 C.2    11  PRO11       0.2576
      4  O         -8.0460   61.8020   43.7970 O.2    11  PRO11      -0.2718
      5  CB       -10.2010   62.6120   45.8780 C.3    11  PRO11       0.0282
      6  CG       -11.0680   61.8070   44.9900 C.3    11  PRO11       0.0208
      7  CD       -11.3330   62.6760   43.7890 C.3    11  PRO11       0.0893
      8  N         -6.9390   63.1930   45.1710 N.am   12  LEU12      -0.1966
      9  CA        -5.6180   62.6240   44.9140 C.3    12  LEU12       0.1728
     10  C         -5.1080   61.7630   46.0690 C.2    12  LEU12       0.2616
     11  O         -4.2910   60.8650   45.8650 O.2    12  LEU12      -0.2715
     12  CB        -4.6380   63.7550   44.6910 C.3    12  LEU12       0.0311
     13  CG        -4.8940   64.6640   43.4910 C.3    12  LEU12       0.0022
     14  CD1       -4.0590   65.9370   43.6040 C.3    12  LEU12       0.0001
     15  CD2       -4.5770   63.9300   42.2190 C.3    12  LEU12       0.0001
     16  N         -5.5740   62.0690   47.2810 N.am   13  GLY13      -0.1955
     17  CA        -5.1420   61.3710   48.4920 C.3    13  GLY13       0.1869
     18  C         -6.1110   61.6090   49.6350 C.2    13  GLY13       0.2309
     19  O         -6.7910   62.6440   49.6760 O.2    13  GLY13      -0.2863
     20  N         -6.9870   65.7060   49.8580 N.3    20  VAL20      -0.1245
     21  CA        -6.4150   66.6250   48.8930 C.3    20  VAL20       0.1561
     22  C         -7.0000   66.3200   47.5120 C.2    20  VAL20       0.2260
     23  O         -7.1240   65.1610   47.0980 O.2    20  VAL20      -0.2867
     24  CB        -4.8570   66.6720   48.9250 C.3    20  VAL20       0.0252
     25  CG1       -4.2680   65.5100   49.7060 C.3    20  VAL20       0.0019
     26  CG2       -4.2650   66.7610   47.5220 C.3    20  VAL20       0.0019
     27  N         -7.4010   67.5260   43.3070 N.3    22  LEU22      -0.1245
     28  CA        -6.8230   68.1680   42.1600 C.3    22  LEU22       0.1561
     29  C         -7.7870   69.2780   41.7970 C.2    22  LEU22       0.2260
     30  O         -9.0050   69.1150   41.9300 O.2    22  LEU22      -0.2867
     31  CB        -6.6760   67.1390   41.0420 C.3    22  LEU22       0.0270
     32  CG        -5.9630   67.4720   39.7270 C.3    22  LEU22       0.0019
     33  CD1       -4.7590   68.3730   39.8990 C.3    22  LEU22       0.0001
     34  CD2       -5.5460   66.1720   39.0970 C.3    22  LEU22       0.0001
     35  N         -3.1900   71.8190   43.8270 N.3    33  ALA33      -0.1245
     36  CA        -3.6900   70.8150   44.7490 C.3    33  ALA33       0.1562
     37  C         -4.3000   71.5440   45.9040 C.2    33  ALA33       0.2260
     38  O         -3.6460   72.3920   46.5040 O.2    33  ALA33      -0.2867
     39  CB        -2.5580   69.9380   45.2370 C.3    33  ALA33       0.0290
     40  N         -5.7790   71.1620   49.5340 N.3    35  LYS35      -0.1245
     41  CA        -5.8700   70.2930   50.7100 C.3    35  LYS35       0.1561
     42  C         -6.9000   70.8560   51.6640 C.2    35  LYS35       0.2260
     43  O         -6.7740   71.9940   52.1340 O.2    35  LYS35      -0.2867
     44  CB        -4.5180   70.1700   51.4090 C.3    35  LYS35       0.0271
     45  CG        -4.4940   69.2010   52.5780 C.3    35  LYS35       0.0035
     46  CD        -3.0630   68.8430   52.9490 C.3    35  LYS35       0.0206
     47  CE        -3.0000   67.8960   54.1300 C.3    35  LYS35       0.1093
     48  NZ        -1.6790   67.2210   54.1750 N.3    35  LYS35      -0.1314
     49  N          7.7780   71.1130   48.0950 N.3    67  LEU67      -0.1245
     50  CA         6.4620   71.4430   47.5870 C.3    67  LEU67       0.1561
     51  C          6.0630   72.8190   48.1000 C.2    67  LEU67       0.2260
     52  O          6.1770   73.1270   49.2740 O.2    67  LEU67      -0.2867
     53  CB         5.4330   70.3910   47.9940 C.3    67  LEU67       0.0270
     54  CG         4.1580   70.3840   47.1650 C.3    67  LEU67       0.0019
     55  CD1        4.4190   69.8630   45.7560 C.3    67  LEU67       0.0001
     56  CD2        3.1380   69.5270   47.8500 C.3    67  LEU67       0.0001
     57  N         -1.9050   74.4160   47.2480 N.3    83  LEU83      -0.1231
     58  CA        -0.6000   73.7740   47.1500 C.3    83  LEU83       0.1693
     59  C         -0.2060   73.5050   45.7070 C.2    83  LEU83       0.2592
     60  O         -1.0550   73.3430   44.8310 O.2    83  LEU83      -0.2718
     61  CB        -0.6010   72.4410   47.9220 C.3    83  LEU83       0.0284
     62  CG        -0.6920   72.5300   49.4560 C.3    83  LEU83       0.0019
     63  CD1       -1.3310   71.2870   50.0580 C.3    83  LEU83       0.0001
     64  CD2        0.6740   72.7700   50.0650 C.3    83  LEU83       0.0001
     65  N          1.1020   73.4480   45.4890 N.am   84  GLU84      -0.1966
     66  CA         1.6710   73.0050   44.2290 C.3    84  GLU84       0.1733
     67  C          1.2080   71.5810   43.9730 C.2    84  GLU84       0.2616
     68  O          1.1640   70.7760   44.8870 O.2    84  GLU84      -0.2715
     69  CB         3.2060   73.0630   44.3050 C.3    84  GLU84       0.0429
     70  CG         3.9380   72.6860   43.0230 C.3    84  GLU84       0.1163
     71  CD         5.4380   72.6410   43.2050 C.2    84  GLU84       0.3649
     72  OE1        6.1620   72.3230   42.2400 O.co2  84  GLU84      -0.2457
     73  OE2        5.8920   72.9270   44.3170 O.co2  84  GLU84      -0.2457
     74  N          0.8620   71.3020   42.7220 N.am   85  TYR85      -0.1960
     75  CA         0.4640   69.9880   42.2610 C.3    85  TYR85       0.1771
     76  C          1.6770   69.3520   41.6210 C.2    85  TYR85       0.2619
     77  O          2.3420   69.9740   40.8080 O.2    85  TYR85      -0.2715
     78  CB        -0.6550   70.1250   41.2420 C.3    85  TYR85       0.0574
     79  CG        -1.0500   68.8350   40.5630 C.ar   85  TYR85      -0.0198
     80  CD1       -1.5840   67.7700   41.2870 C.ar   85  TYR85      -0.0009
     81  CD2       -0.9080   68.6900   39.1880 C.ar   85  TYR85      -0.0009
     82  CE1       -1.9410   66.6040   40.6510 C.ar   85  TYR85       0.0417
     83  CE2       -1.2660   67.5280   38.5470 C.ar   85  TYR85       0.0417
     84  CZ        -1.7810   66.4930   39.2670 C.ar   85  TYR85       0.1957
     85  OH        -2.1320   65.3510   38.5780 O.3    85  TYR85      -0.2866
     86  N          2.0020   68.1390   42.0520 N.am   86  ALA86      -0.1964
     87  CA         3.1030   67.3740   41.5140 C.3    86  ALA86       0.1713
     88  C          2.4620   66.4340   40.5060 C.2    86  ALA86       0.2458
     89  O          1.8200   65.4480   40.8910 O.2    86  ALA86      -0.2730
     90  CB         3.7720   66.6030   42.6090 C.3    86  ALA86       0.0333
     91  N          2.6080   66.7320   39.2050 N.am   87  PRO87      -0.2716
     92  CA         1.8120   65.9860   38.2300 C.3    87  PRO87       0.1536
     93  C          2.0400   64.5050   38.2010 C.2    87  PRO87       0.2598
     94  O          1.1140   63.7840   37.8570 O.2    87  PRO87      -0.2715
     95  CB         2.2250   66.5830   36.8940 C.3    87  PRO87       0.0310
     96  CG         2.8030   67.9300   37.2350 C.3    87  PRO87       0.0237
     97  CD         3.4700   67.7370   38.5540 C.3    87  PRO87       0.0939
     98  N          3.2210   64.0390   38.5880 N.am   88  LEU88      -0.1964
     99  CA         3.5540   62.6220   38.4450 C.3    88  LEU88       0.1728
    100  C          3.3650   61.7430   39.6980 C.2    88  LEU88       0.2617
    101  O          3.8330   60.6080   39.7240 O.2    88  LEU88      -0.2715
    102  CB         4.9860   62.5140   37.9200 C.3    88  LEU88       0.0311
    103  CG         5.1660   62.5080   36.3970 C.3    88  LEU88       0.0022
    104  CD1        4.1430   63.3220   35.6760 C.3    88  LEU88       0.0001
    105  CD2        6.5480   62.9990   36.0250 C.3    88  LEU88       0.0001
    106  N          2.6850   62.2380   40.7290 N.am   89  GLY89      -0.1940
    107  CA         2.3560   61.4050   41.8860 C.3    89  GLY89       0.2014
    108  C          3.4500   61.1740   42.9070 C.2    89  GLY89       0.2639
    109  O          4.4310   61.9230   42.9710 O.2    89  GLY89      -0.2714
    110  N          3.2560   60.1390   43.7260 N.am   90  THR90      -0.1950
    111  CA         4.1310   59.8620   44.8600 C.3    90  THR90       0.1897
    112  C          5.2530   58.9110   44.4740 C.2    90  THR90       0.2313
    113  O          5.1100   58.0830   43.5740 O.2    90  THR90      -0.2863
    114  CB         3.3560   59.2870   46.1000 C.3    90  THR90       0.1794
    115  OG1        2.9480   57.9230   45.8790 O.3    90  THR90      -0.2208
    116  CG2        2.1390   60.1570   46.4340 C.3    90  THR90       0.0378
    117  N          4.2090   55.2080   45.2260 N.3    93  ARG93      -0.1245
    118  CA         3.6020   54.4920   44.1000 C.3    93  ARG93       0.1563
    119  C          4.6080   54.0740   43.0470 C.2    93  ARG93       0.2260
    120  O          4.5170   52.9860   42.4960 O.2    93  ARG93      -0.2867
    121  CB         2.5270   55.3410   43.4270 C.3    93  ARG93       0.0307
    122  CG         1.1770   55.2120   44.0720 C.3    93  ARG93       0.0489
    123  CD         0.4540   53.9240   43.6520 C.3    93  ARG93       0.2205
    124  NE        -0.6150   53.6020   44.5990 N.pl3  93  ARG93      -0.0865
    125  CZ        -0.4430   52.9730   45.7650 C.cat  93  ARG93       0.5346
    126  NH1        0.7610   52.5580   46.1540 N.pl3  93  ARG93       0.1354
    127  NH2       -1.4880   52.7490   46.5550 N.pl3  93  ARG93       0.1354
    128  N          6.7190   63.6980   46.5740 N.3   136  LEU136     -0.1245
    129  CA         5.9450   63.8110   45.3360 C.3   136  LEU136      0.1561
    130  C          6.8980   63.9560   44.1490 C.2   136  LEU136      0.2260
    131  O          8.0920   64.1660   44.3390 O.2   136  LEU136     -0.2867
    132  CB         4.9980   65.0190   45.3850 C.3   136  LEU136      0.0270
    133  CG         3.8280   65.0380   46.3660 C.3   136  LEU136      0.0019
    134  CD1        2.8680   63.8950   46.1210 C.3   136  LEU136      0.0001
    135  CD2        4.3470   64.9730   47.7760 C.3   136  LEU136      0.0001
    136  N          7.2300   67.1770   51.1970 N.3   146  ALA146     -0.1245
    137  CA         5.8810   67.6370   51.5750 C.3   146  ALA146      0.1562
    138  C          5.4370   67.1730   52.9830 C.2   146  ALA146      0.2260
    139  O          4.5380   66.3310   53.1150 O.2   146  ALA146     -0.2867
    140  CB         4.8770   67.1760   50.5220 C.3   146  ALA146      0.0290
@<TRIPOS>BOND
     1   104   103    1
     2   105   103    1
     3   103   102    1
     4    95    96    1
     5    95    92    1
     6    96    97    1
     7    94    93    2
     8   102    99    1
     9    93    92    1
    10    93    98   am
    11    92    91    1
    12    99    98    1
    13    99   100    1
    14    83    81   ar
    15    83    84   ar
    16    97    91    1
    17    85    84    1
    18    34    32    1
    19    81    79   ar
    20    91    88   am
    21    84    82   ar
    22   100   101    2
    23   100   106   am
    24    32    33    1
    25    32    31    1
    26    88    89    2
    27    88    87    1
    28    79    78    1
    29    79    80   ar
    30    82    80   ar
    31   106   107    1
    32    77    76    2
    33    31    28    1
    34    78    75    1
    35    87    86    1
    36    87    90    1
    37    76    86   am
    38    76    75    1
    39    29    30    2
    40    29    28    1
    41   107   108    1
    42    28    27    1
    43    15    13    1
    44    72    71   ar
    45    75    74    1
    46   120   119    2
    47    74    67   am
    48   108   109    2
    49   108   110   am
    50    70    71    1
    51    70    69    1
    52   119   118    1
    53    71    73   ar
    54   121   122    1
    55   121   118    1
    56    13    14    1
    57    13    12    1
    58   113   112    2
    59   123   122    1
    60   123   124    1
    61   110   111    1
    62     1     7    1
    63     1     2    1
    64     7     6    1
    65     4     3    2
    66    35    36    1
    67    67    66    1
    68    67    68    2
    69   118   117    1
    70   130   131    2
    71   130   129    1
    72    66    69    1
    73    66    65    1
    74   112   111    1
    75     3     2    1
    76     3     8   am
    77   124   125    2
    78    12     9    1
    79    36    39    1
    80    36    37    1
    81    60    59    2
    82   111   114    1
    83     9     8    1
    84     9    10    1
    85     2     5    1
    86     6     5    1
    87   129   132    1
    88   129   128    1
    89   132   133    1
    90    65    59   am
    91    59    58    1
    92    55    54    1
    93   125   126    1
    94   125   127    1
    95    11    10    2
    96   115   114    1
    97    37    38    2
    98    10    16   am
    99   114   116    1
   100   134   133    1
   101   133   135    1
   102    23    22    2
   103    58    57    1
   104    58    61    1
   105    54    56    1
   106    54    53    1
   107    16    17    1
   108    22    21    1
   109    26    24    1
   110    50    53    1
   111    50    49    1
   112    50    51    1
   113    61    62    1
   114    51    52    2
   115    17    18    1
   116    21    24    1
   117    21    20    1
   118    24    25    1
   119    62    63    1
   120    62    64    1
   121    40    41    1
   122    18    19    2
   123   140   137    1
   124    41    44    1
   125    41    42    1
   126   136   137    1
   127    44    45    1
   128   137   138    1
   129    42    43    2
   130    45    46    1
   131    46    47    1
   132   138   139    2
   133    47    48    1
