@<TRIPOS>MOLECULE
tmp/3cojD00.pdb
 209 203 0 0 0
SMALL
GASTEIGER

@<TRIPOS>ATOM
      1  N         35.7160  -59.2550   37.1400 N.3     7  VAL7       -0.1231
      2  CA        34.3030  -59.4270   37.4430 C.3     7  VAL7        0.1692
      3  C         34.0880  -59.4710   38.9530 C.2     7  VAL7        0.2593
      4  O         35.0360  -59.6850   39.7060 O.2     7  VAL7       -0.2718
      5  CB        33.7420  -60.6880   36.7560 C.3     7  VAL7        0.0266
      6  CG1       32.2630  -60.5920   36.6370 C.3     7  VAL7        0.0020
      7  CG2       34.3090  -60.8290   35.3560 C.3     7  VAL7        0.0020
      8  N         32.8540  -59.2500   39.4020 N.am    8  SER8       -0.1938
      9  CA        32.5750  -59.1700   40.8400 C.3     8  SER8        0.2055
     10  C         31.1940  -59.6630   41.2360 C.2     8  SER8        0.2644
     11  O         30.1850  -59.2370   40.6800 O.2     8  SER8       -0.2714
     12  CB        32.7650  -57.7410   41.3460 C.3     8  SER8        0.2130
     13  OG        32.2380  -57.5990   42.6470 O.3     8  SER8       -0.2179
     14  N         31.1690  -60.5650   42.2120 N.am    9  GLY9       -0.1939
     15  CA        29.9250  -61.1120   42.7570 C.3     9  GLY9        0.2014
     16  C         29.0460  -61.9300   41.8230 C.2     9  GLY9        0.2639
     17  O         27.8390  -61.6880   41.7440 O.2     9  GLY9       -0.2714
     18  N         29.6380  -62.8910   41.1170 N.am   10  LEU10      -0.1963
     19  CA        28.8520  -63.8270   40.3270 C.3    10  LEU10       0.1728
     20  C         29.3940  -65.2280   40.3750 C.2    10  LEU10       0.2617
     21  O         30.5910  -65.4290   40.5630 O.2    10  LEU10      -0.2715
     22  CB        28.7140  -63.4000   38.8650 C.3    10  LEU10       0.0311
     23  CG        29.7210  -62.5410   38.1190 C.3    10  LEU10       0.0022
     24  CD1       29.9730  -63.1000   36.7340 C.3    10  LEU10       0.0001
     25  CD2       29.1470  -61.1430   38.0380 C.3    10  LEU10       0.0001
     26  N         28.4870  -66.1840   40.1810 N.am   11  THR11      -0.1937
     27  CA        28.7990  -67.6110   40.1230 C.3    11  THR11       0.2013
     28  C         29.8640  -67.9280   39.0690 C.2    11  THR11       0.2484
     29  O         29.9190  -67.2700   38.0250 O.2    11  THR11      -0.2729
     30  CB        27.5160  -68.4360   39.8010 C.3    11  THR11       0.1807
     31  OG1       26.9160  -67.9560   38.5920 O.3    11  THR11      -0.2208
     32  CG2       26.4280  -68.2100   40.8430 C.3    11  THR11       0.0379
     33  N         30.7010  -68.9380   39.3360 N.am   12  PRO12      -0.2726
     34  CA        31.5960  -69.4820   38.3170 C.3    12  PRO12       0.1402
     35  C         30.8470  -69.6900   37.0030 C.2    12  PRO12       0.2269
     36  O         31.3660  -69.3660   35.9310 O.2    12  PRO12      -0.2865
     37  CB        32.0190  -70.8350   38.9120 C.3    12  PRO12       0.0296
     38  CG        31.1610  -71.0240   40.1280 C.3    12  PRO12       0.0237
     39  CD        30.8660  -69.6400   40.6210 C.3    12  PRO12       0.0939
     40  N         41.1610  -62.4740   37.0920 N.3    31  ASN31      -0.1225
     41  CA        40.3060  -62.9130   38.1790 C.3    31  ASN31       0.1785
     42  C         40.4490  -61.9840   39.3740 C.2    31  ASN31       0.2597
     43  O         39.5750  -61.9390   40.2300 O.2    31  ASN31      -0.2718
     44  CB        40.5820  -64.3810   38.5480 C.3    31  ASN31       0.1169
     45  CG        41.6990  -64.5430   39.5710 C.2    31  ASN31       0.2627
     46  OD1       41.5390  -65.2600   40.5580 O.2    31  ASN31      -0.2716
     47  ND2       42.8310  -63.8900   39.3360 N.am   31  ASN31      -0.0877
     48  N         41.5570  -61.2420   39.4060 N.am   32  LEU32      -0.1980
     49  CA        41.8310  -60.2580   40.4530 C.3    32  LEU32       0.1596
     50  C         42.1120  -58.8730   39.8740 C.2    32  LEU32       0.2287
     51  O         42.6270  -58.7430   38.7660 O.2    32  LEU32      -0.2864
     52  CB        43.0090  -60.7010   41.3240 C.3    32  LEU32       0.0297
     53  CG        42.9110  -62.0030   42.1180 C.3    32  LEU32       0.0022
     54  CD1       44.0210  -62.0360   43.1610 C.3    32  LEU32       0.0001
     55  CD2       41.5540  -62.1860   42.7790 C.3    32  LEU32       0.0001
     56  N         25.7910  -55.6440   45.3410 N.3    50  GLU50      -0.1231
     57  CA        26.3300  -55.8870   46.6920 C.3    50  GLU50       0.1699
     58  C         27.6710  -55.1520   46.8240 C.2    50  GLU50       0.2592
     59  O         28.2860  -54.8050   45.8090 O.2    50  GLU50      -0.2718
     60  CB        26.5600  -57.3820   46.9250 C.3    50  GLU50       0.0402
     61  CG        25.5960  -58.3250   46.2170 C.3    50  GLU50       0.1161
     62  CD        24.6030  -58.9710   47.1540 C.2    50  GLU50       0.3649
     63  OE1       24.1690  -60.1080   46.8700 O.co2  50  GLU50      -0.2457
     64  OE2       24.2640  -58.3500   48.1770 O.co2  50  GLU50      -0.2457
     65  N         28.1430  -54.9350   48.0510 N.am   51  ARG51      -0.1966
     66  CA        29.4570  -54.2960   48.2470 C.3    51  ARG51       0.1729
     67  C         30.6160  -55.2930   48.3620 C.2    51  ARG51       0.2617
     68  O         30.6360  -56.1260   49.2670 O.2    51  ARG51      -0.2715
     69  CB        29.4400  -53.3970   49.4740 C.3    51  ARG51       0.0348
     70  CG        28.9360  -52.0060   49.2210 C.3    51  ARG51       0.0492
     71  CD        28.4600  -51.3240   50.4740 C.3    51  ARG51       0.2205
     72  NE        29.5620  -50.8310   51.3000 N.pl3  51  ARG51      -0.0865
     73  CZ        29.5260  -50.7400   52.6300 C.cat  51  ARG51       0.5346
     74  NH1       28.4490  -51.1240   53.3120 N.pl3  51  ARG51       0.1354
     75  NH2       30.5740  -50.2600   53.2830 N.pl3  51  ARG51       0.1354
     76  N         31.5880  -55.1990   47.4570 N.am   52  THR52      -0.1937
     77  CA        32.7280  -56.1260   47.4560 C.3    52  THR52       0.2028
     78  C         34.0440  -55.3590   47.4260 C.2    52  THR52       0.2642
     79  O         34.0490  -54.1590   47.1640 O.2    52  THR52      -0.2714
     80  CB        32.6600  -57.0830   46.2430 C.3    52  THR52       0.1808
     81  OG1       32.6510  -56.3160   45.0310 O.3    52  THR52      -0.2208
     82  CG2       31.3300  -57.8590   46.2080 C.3    52  THR52       0.0379
     83  N         35.1540  -56.0540   47.6860 N.am   53  LEU53      -0.1963
     84  CA        36.4790  -55.4430   47.6040 C.3    53  LEU53       0.1728
     85  C         36.7070  -54.8610   46.2180 C.2    53  LEU53       0.2616
     86  O         37.1200  -53.7060   46.0980 O.2    53  LEU53      -0.2715
     87  CB        37.5950  -56.4360   47.9440 C.3    53  LEU53       0.0311
     88  CG        39.0220  -55.9070   47.7350 C.3    53  LEU53       0.0022
     89  CD1       39.4440  -55.0300   48.8830 C.3    53  LEU53       0.0001
     90  CD2       40.0270  -57.0270   47.5530 C.3    53  LEU53       0.0001
     91  N         36.4310  -55.6450   45.1740 N.am   54  LYS54      -0.1977
     92  CA        36.5470  -55.1440   43.7980 C.3    54  LYS54       0.1596
     93  C         35.6970  -53.8910   43.5710 C.2    54  LYS54       0.2287
     94  O         36.1770  -52.9240   42.9860 O.2    54  LYS54      -0.2864
     95  CB        36.1980  -56.2220   42.7810 C.3    54  LYS54       0.0298
     96  CG        37.3040  -57.2130   42.5680 C.3    54  LYS54       0.0038
     97  CD        36.8320  -58.3980   41.7870 C.3    54  LYS54       0.0206
     98  CE        37.9800  -59.3230   41.5470 C.3    54  LYS54       0.1093
     99  NZ        37.5480  -60.4140   40.6590 N.3    54  LYS54      -0.1314
    100  N         34.7050  -51.5550   45.7810 N.3    56  PHE56      -0.1241
    101  CA        35.4010  -50.4170   46.3840 C.3    56  PHE56       0.1605
    102  C         36.6390  -50.0280   45.5700 C.2    56  PHE56       0.2264
    103  O         36.9350  -48.8470   45.3960 O.2    56  PHE56      -0.2867
    104  CB        35.8360  -50.7170   47.8230 C.3    56  PHE56       0.0534
    105  CG        34.7100  -50.9820   48.7660 C.ar   56  PHE56      -0.0203
    106  CD1       34.5360  -52.2430   49.3140 C.ar   56  PHE56      -0.0042
    107  CD2       33.8320  -49.9740   49.1280 C.ar   56  PHE56      -0.0042
    108  CE1       33.4870  -52.5060   50.2000 C.ar   56  PHE56      -0.0003
    109  CE2       32.7760  -50.2290   50.0150 C.ar   56  PHE56      -0.0003
    110  CZ        32.6070  -51.4970   50.5480 C.ar   56  PHE56      -0.0000
    111  N         23.9500  -50.2610   49.0810 N.3    92  VAL92      -0.1231
    112  CA        23.5410  -50.4330   50.4810 C.3    92  VAL92       0.1692
    113  C         24.1180  -49.3620   51.4350 C.2    92  VAL92       0.2591
    114  O         23.5200  -49.0820   52.4790 O.2    92  VAL92      -0.2718
    115  CB        23.8010  -51.8790   50.9640 C.3    92  VAL92       0.0266
    116  CG1       24.7470  -51.9270   52.1620 C.3    92  VAL92       0.0020
    117  CG2       22.4750  -52.5840   51.2170 C.3    92  VAL92       0.0020
    118  N         25.2610  -48.7630   51.0720 N.am   93  VAL93      -0.1980
    119  CA        25.6670  -47.4570   51.6230 C.3    93  VAL93       0.1595
    120  C         24.7650  -46.4410   50.9510 C.2    93  VAL93       0.2287
    121  O         23.8350  -45.9110   51.5660 O.2    93  VAL93      -0.2864
    122  CB        27.1230  -47.0510   51.2950 C.3    93  VAL93       0.0276
    123  CG1       27.4900  -45.7600   52.0090 C.3    93  VAL93       0.0022
    124  CG2       28.0680  -48.1020   51.7030 C.3    93  VAL93       0.0022
    125  N         39.0760  -58.2690   58.5750 N.3   125  THR125     -0.1203
    126  CA        38.5030  -59.5240   58.0810 C.3   125  THR125      0.1994
    127  C         38.8240  -59.7170   56.6050 C.2   125  THR125      0.2618
    128  O         39.9980  -59.7400   56.2220 O.2   125  THR125     -0.2717
    129  CB        36.9740  -59.6480   58.3440 C.3   125  THR125      0.1784
    130  OG1       36.3170  -58.4080   58.0420 O.3   125  THR125     -0.2211
    131  CG2       36.6860  -59.8840   59.8230 C.3   125  THR125      0.0376
    132  N         37.7830  -59.8290   55.7820 N.am  126  ASN126     -0.1960
    133  CA        37.9300  -60.2860   54.4000 C.3   126  ASN126      0.1819
    134  C         38.3830  -59.1850   53.4400 C.2   126  ASN126      0.2621
    135  O         37.8110  -58.9740   52.3710 O.2   126  ASN126     -0.2715
    136  CB        36.6410  -60.9590   53.9440 C.3   126  ASN126      0.1195
    137  CG        36.0230  -61.8030   55.0360 C.2   126  ASN126      0.2630
    138  OD1       35.0370  -61.4060   55.6490 O.2   126  ASN126     -0.2716
    139  ND2       36.6270  -62.9570   55.3160 N.am  126  ASN126     -0.0877
    140  N         39.4330  -58.4900   53.8540 N.am  127  MET127     -0.1977
    141  CA        40.0420  -57.4420   53.0800 C.3   127  MET127      0.1605
    142  C         41.4100  -57.2240   53.6990 C.2   127  MET127      0.2287
    143  O         41.5560  -56.4740   54.6650 O.2   127  MET127     -0.2864
    144  CB        39.1990  -56.1730   53.1420 C.3   127  MET127      0.0413
    145  CG        39.8160  -54.9660   52.4700 C.3   127  MET127      0.0598
    146  SD        38.7680  -53.5240   52.7010 S.3   127  MET127     -0.1393
    147  CE        37.3510  -53.9450   51.6840 C.3   127  MET127      0.0692
    148  N         35.9880  -46.3810   62.9100 N.3   183  THR183     -0.1203
    149  CA        35.7150  -47.6960   62.3390 C.3   183  THR183      0.1994
    150  C         36.0660  -47.7370   60.8520 C.2   183  THR183      0.2618
    151  O         36.1090  -46.7100   60.1830 O.2   183  THR183     -0.2717
    152  CB        34.2520  -48.1550   62.6050 C.3   183  THR183      0.1784
    153  OG1       33.9890  -49.3660   61.8920 O.3   183  THR183     -0.2211
    154  CG2       33.2480  -47.2030   61.9990 C.3   183  THR183      0.0376
    155  N         36.3350  -48.9330   60.3520 N.am  184  ARG184     -0.1965
    156  CA        36.7350  -49.1310   58.9630 C.3   184  ARG184      0.1729
    157  C         35.5850  -48.8210   58.0020 C.2   184  ARG184      0.2616
    158  O         35.7980  -48.6250   56.8050 O.2   184  ARG184     -0.2715
    159  CB        37.2490  -50.5680   58.7970 C.3   184  ARG184      0.0348
    160  CG        37.7050  -50.9600   57.4080 C.3   184  ARG184      0.0492
    161  CD        36.7580  -51.9220   56.7070 C.3   184  ARG184      0.2205
    162  NE        37.1750  -53.3260   56.8000 N.pl3 184  ARG184     -0.0865
    163  CZ        36.4810  -54.2770   57.4150 C.cat 184  ARG184      0.5346
    164  NH1       35.3260  -53.9830   58.0060 N.pl3 184  ARG184      0.1354
    165  NH2       36.9380  -55.5260   57.4300 N.pl3 184  ARG184      0.1354
    166  N         34.3740  -48.7630   58.5500 N.am  185  GLU185     -0.1977
    167  CA        33.1730  -48.4270   57.7990 C.3   185  GLU185      0.1602
    168  C         33.2030  -46.9900   57.2850 C.2   185  GLU185      0.2287
    169  O         32.4500  -46.6310   56.3800 O.2   185  GLU185     -0.2864
    170  CB        31.9370  -48.6410   58.6720 C.3   185  GLU185      0.0415
    171  CG        31.5330  -50.0970   58.8260 C.3   185  GLU185      0.1163
    172  CD        31.0730  -50.7140   57.5190 C.2   185  GLU185      0.3649
    173  OE1       30.4280  -49.9940   56.7180 O.co2 185  GLU185     -0.2457
    174  OE2       31.3520  -51.9170   57.2960 O.co2 185  GLU185     -0.2457
    175  N         35.0330  -47.2530   53.8330 N.3   188  LEU188     -0.1231
    176  CA        34.0960  -47.9520   52.9560 C.3   188  LEU188      0.1693
    177  C         32.8560  -47.1530   52.5440 C.2   188  LEU188      0.2592
    178  O         32.3600  -47.3180   51.4350 O.2   188  LEU188     -0.2718
    179  CB        33.6880  -49.2870   53.5870 C.3   188  LEU188      0.0284
    180  CG        34.5040  -50.5250   53.1990 C.3   188  LEU188      0.0019
    181  CD1       35.9990  -50.3680   53.4480 C.3   188  LEU188      0.0001
    182  CD2       33.9740  -51.7250   53.9310 C.3   188  LEU188      0.0001
    183  N         32.3490  -46.3020   53.4240 N.am  189  ASP189     -0.1974
    184  CA        31.2360  -45.4350   53.0460 C.3   189  ASP189      0.1709
    185  C         31.7240  -44.2440   52.2140 C.2   189  ASP189      0.2293
    186  O         31.0700  -43.8210   51.2490 O.2   189  ASP189     -0.2864
    187  CB        30.4720  -44.9570   54.2810 C.3   189  ASP189      0.1436
    188  CG        29.6630  -46.0580   54.9330 C.2   189  ASP189      0.3671
    189  OD1       29.3480  -47.0630   54.2640 O.co2 189  ASP189     -0.2456
    190  OD2       29.2900  -46.0030   56.1230 O.co2 189  ASP189     -0.2456
    191  N         29.9050  -40.1200   63.2500 N.3   201  THR201     -0.1203
    192  CA        29.3140  -41.4100   63.6550 C.3   201  THR201      0.1994
    193  C         30.3180  -42.5540   63.6910 C.2   201  THR201      0.2617
    194  O         30.1200  -43.5440   64.4010 O.2   201  THR201     -0.2717
    195  CB        28.1350  -41.8210   62.7390 C.3   201  THR201      0.1784
    196  OG1       28.5480  -41.7650   61.3700 O.3   201  THR201     -0.2211
    197  CG2       26.9740  -40.8270   62.8350 C.3   201  THR201      0.0376
    198  N         31.3930  -42.4170   62.9270 N.am  202  TYR202     -0.1975
    199  CA        32.3700  -43.4910   62.7960 C.3   202  TYR202      0.1639
    200  C         33.3610  -43.5580   63.9570 C.2   202  TYR202      0.2290
    201  O         34.1280  -44.5140   64.0570 O.2   202  TYR202     -0.2864
    202  CB        33.1000  -43.4040   61.4430 C.3   202  TYR202      0.0560
    203  CG        32.1690  -43.4990   60.2510 C.ar  202  TYR202     -0.0198
    204  CD1       31.8030  -42.3600   59.5380 C.ar  202  TYR202     -0.0009
    205  CD2       31.6360  -44.7220   59.8520 C.ar  202  TYR202     -0.0009
    206  CE1       30.9430  -42.4410   58.4580 C.ar  202  TYR202      0.0417
    207  CE2       30.7730  -44.8090   58.7770 C.ar  202  TYR202      0.0417
    208  CZ        30.4340  -43.6680   58.0900 C.ar  202  TYR202      0.1957
    209  OH        29.5790  -43.7490   57.0320 O.3   202  TYR202     -0.2866
@<TRIPOS>BOND
     1     7     5    1
     2    36    35    2
     3     6     5    1
     4    24    23    1
     5     5     2    1
     6    35    34    1
     7    40    41    1
     8     1     2    1
     9     2     3    1
    10    29    28    2
    11    25    23    1
    12    23    22    1
    13    41    44    1
    14    41    42    1
    15    34    37    1
    16    34    33    1
    17    44    45    1
    18    31    30    1
    19    51    50    2
    20    22    19    1
    21    37    38    1
    22     3     8   am
    23     3     4    2
    24    28    33   am
    25    28    27    1
    26    33    39    1
    27    47    45   am
    28    42    48   am
    29    42    43    2
    30     8     9    1
    31    48    49    1
    32    45    46    2
    33    30    27    1
    34    30    32    1
    35    50    49    1
    36    27    26    1
    37    38    39    1
    38    26    20   am
    39    19    20    1
    40    19    18    1
    41    20    21    2
    42    49    52    1
    43    99    98    1
    44    11    10    2
    45     9    10    1
    46     9    12    1
    47    18    16   am
    48    10    14   am
    49    52    53    1
    50    12    13    1
    51    98    97    1
    52    17    16    2
    53    97    96    1
    54    16    15    1
    55    53    55    1
    56    53    54    1
    57    14    15    1
    58    96    95    1
    59    95    92    1
    60    94    93    2
    61    93    92    1
    62    92    91    1
    63    81    80    1
    64    91    85   am
    65    56    57    1
    66   103   102    2
    67   102   101    1
    68   100   101    1
    69    59    58    2
    70    86    85    2
    71    82    80    1
    72    61    60    1
    73    61    62    1
    74    85    84    1
    75    80    77    1
    76   101   104    1
    77    57    58    1
    78    57    60    1
    79    58    65   am
    80    63    62   ar
    81    62    64   ar
    82    79    78    2
    83    78    77    1
    84    78    83   am
    85    77    76    1
    86    76    67   am
    87    90    88    1
    88    84    83    1
    89    84    87    1
    90    88    87    1
    91    88    89    1
    92   104   105    1
    93    65    66    1
    94    66    67    1
    95    66    69    1
    96    67    68    2
    97   105   107   ar
    98   105   106   ar
    99   111   112    1
   100   107   109   ar
   101    70    69    1
   102    70    71    1
   103   106   108   ar
   104   109   110   ar
   105   108   110   ar
   106    71    72    1
   107   112   115    1
   108   112   113    1
   109   120   121    2
   110   120   119    1
   111   115   117    1
   112   115   116    1
   113   118   113   am
   114   118   119    1
   115   186   185    2
   116   122   119    1
   117   122   124    1
   118   122   123    1
   119    72    73    2
   120   113   114    2
   121   178   177    2
   122   147   146    1
   123   185   184    1
   124   135   134    2
   125   145   146    1
   126   145   144    1
   127   177   176    1
   128   177   183   am
   129    73    75    1
   130    73    74    1
   131   176   179    1
   132   176   175    1
   133   184   183    1
   134   184   187    1
   135   141   144    1
   136   141   142    1
   137   141   140    1
   138   180   181    1
   139   180   179    1
   140   180   182    1
   141   134   140   am
   142   134   133    1
   143   142   143    2
   144   136   133    1
   145   136   137    1
   146   189   188   ar
   147   187   188    1
   148   133   132    1
   149   188   190   ar
   150   137   139   am
   151   137   138    2
   152   132   127   am
   153   128   127    2
   154   169   168    2
   155   127   126    1
   156   161   162    1
   157   161   160    1
   158   173   172   ar
   159   162   163    2
   160   158   157    2
   161   209   208    1
   162   168   167    1
   163   174   172   ar
   164   160   159    1
   165   163   165    1
   166   163   164    1
   167   172   171    1
   168   167   166    1
   169   167   170    1
   170   157   166   am
   171   157   156    1
   172   130   129    1
   173   126   129    1
   174   126   125    1
   175   208   206   ar
   176   208   207   ar
   177   129   131    1
   178   206   204   ar
   179   170   171    1
   180   207   205   ar
   181   159   156    1
   182   156   155    1
   183   204   203   ar
   184   205   203   ar
   185   151   150    2
   186   203   202    1
   187   155   150   am
   188   150   149    1
   189   196   195    1
   190   202   199    1
   191   153   152    1
   192   154   152    1
   193   149   152    1
   194   149   148    1
   195   195   197    1
   196   195   192    1
   197   199   198    1
   198   199   200    1
   199   198   193   am
   200   191   192    1
   201   192   193    1
   202   193   194    2
   203   200   201    2
