@<TRIPOS>MOLECULE
tmp/3cojE00.pdb
 193 188 0 0 0
SMALL
GASTEIGER

@<TRIPOS>ATOM
      1  N         49.1160   -9.1390  -47.1050 N.3     6  VAL6       -0.1231
      2  CA        48.8720   -8.7460  -45.7180 C.3     6  VAL6        0.1692
      3  C         47.3640   -8.6960  -45.4060 C.2     6  VAL6        0.2593
      4  O         46.5420   -8.4650  -46.3030 O.2     6  VAL6       -0.2718
      5  CB        49.5820   -7.3960  -45.3990 C.3     6  VAL6        0.0266
      6  CG1       48.5820   -6.2610  -45.1770 C.3     6  VAL6        0.0020
      7  CG2       50.4870   -7.5480  -44.2030 C.3     6  VAL6        0.0020
      8  N         47.0120   -8.9310  -44.1390 N.am    7  SER7       -0.1938
      9  CA        45.6160   -8.8720  -43.6890 C.3     7  SER7        0.2055
     10  C         45.4520   -8.4630  -42.2260 C.2     7  SER7        0.2644
     11  O         46.2760   -8.7990  -41.3750 O.2     7  SER7       -0.2714
     12  CB        44.9010  -10.2000  -43.9360 C.3     7  SER7        0.2130
     13  OG        43.5970  -10.1770  -43.3830 O.3     7  SER7       -0.2179
     14  N         44.3670   -7.7430  -41.9530 N.am    8  GLY8       -0.1939
     15  CA        44.0640   -7.2540  -40.6140 C.3     8  GLY8        0.2014
     16  C         44.9460   -6.1020  -40.1660 C.2     8  GLY8        0.2639
     17  O         45.0040   -5.7830  -38.9760 O.2     8  GLY8       -0.2714
     18  N         45.6310   -5.4670  -41.1120 N.am    9  LEU9       -0.1963
     19  CA        46.5450   -4.3860  -40.7700 C.3     9  LEU9        0.1728
     20  C         45.9100   -3.0150  -40.8700 C.2     9  LEU9        0.2617
     21  O         44.9870   -2.7990  -41.6590 O.2     9  LEU9       -0.2715
     22  CB        47.7960   -4.4220  -41.6480 C.3     9  LEU9        0.0311
     23  CG        48.8240   -5.5350  -41.4480 C.3     9  LEU9        0.0022
     24  CD1       50.1660   -5.0140  -41.9030 C.3     9  LEU9        0.0001
     25  CD2       48.9080   -6.0030  -40.0010 C.3     9  LEU9        0.0001
     26  N         46.4150   -2.0920  -40.0570 N.am   10  THR10      -0.1937
     27  CA        46.1090   -0.6800  -40.2280 C.3    10  THR10       0.2013
     28  C         46.9880   -0.1520  -41.3610 C.2    10  THR10       0.2484
     29  O         48.0140   -0.7610  -41.6860 O.2    10  THR10      -0.2729
     30  CB        46.3420    0.1350  -38.9160 C.3    10  THR10       0.1807
     31  OG1       47.7420    0.2130  -38.6170 O.3    10  THR10      -0.2208
     32  CG2       45.7280   -0.5700  -37.7000 C.3    10  THR10       0.0379
     33  N         46.5720    0.9520  -41.9790 N.am   11  PRO11      -0.2726
     34  CA        47.4000    1.6570  -42.9510 C.3    11  PRO11       0.1402
     35  C         48.8660    1.7620  -42.5120 C.2    11  PRO11       0.2269
     36  O         49.7700    1.3610  -43.2540 O.2    11  PRO11      -0.2865
     37  CB        46.7620    3.0550  -42.9900 C.3    11  PRO11       0.0296
     38  CG        45.6510    3.0270  -41.9510 C.3    11  PRO11       0.0237
     39  CD        45.2590    1.6020  -41.8180 C.3    11  PRO11       0.0939
     40  N         41.9050  -12.0330  -36.2140 N.3    49  GLU49      -0.1231
     41  CA        40.4860  -12.0140  -36.5590 C.3    49  GLU49       0.1699
     42  C         40.3120  -12.7850  -37.8650 C.2    49  GLU49       0.2592
     43  O         41.2860  -13.0900  -38.5500 O.2    49  GLU49      -0.2718
     44  CB        39.9470  -10.5810  -36.6630 C.3    49  GLU49       0.0402
     45  CG        39.8690   -9.8550  -35.3230 C.3    49  GLU49       0.1161
     46  CD        39.3890   -8.4130  -35.4340 C.2    49  GLU49       0.3649
     47  OE1       40.2440   -7.5120  -35.5780 O.co2  49  GLU49      -0.2457
     48  OE2       38.1630   -8.1720  -35.3690 O.co2  49  GLU49      -0.2457
     49  N         39.0710  -13.1010  -38.2040 N.am   50  ARG50      -0.1966
     50  CA        38.7840  -14.0080  -39.3020 C.3    50  ARG50       0.1729
     51  C         38.4590  -13.2440  -40.5950 C.2    50  ARG50       0.2617
     52  O         37.3590  -12.7090  -40.7450 O.2    50  ARG50      -0.2715
     53  CB        37.6120  -14.8850  -38.8900 C.3    50  ARG50       0.0348
     54  CG        37.7920  -16.3600  -39.1380 C.3    50  ARG50       0.0492
     55  CD        36.5970  -17.1770  -38.6860 C.3    50  ARG50       0.2205
     56  NE        35.3550  -16.6670  -39.2640 N.pl3  50  ARG50      -0.0865
     57  CZ        34.1300  -17.0460  -38.9190 C.cat  50  ARG50       0.5346
     58  NH1       33.9340  -17.9560  -37.9710 N.pl3  50  ARG50       0.1354
     59  NH2       33.0830  -16.4980  -39.5230 N.pl3  50  ARG50       0.1354
     60  N         39.4140  -13.1910  -41.5240 N.am   51  THR51      -0.1937
     61  CA        39.2340  -12.4320  -42.7730 C.3    51  THR51       0.2028
     62  C         39.2360  -13.3200  -44.0260 C.2    51  THR51       0.2642
     63  O         39.5880  -14.5040  -43.9580 O.2    51  THR51      -0.2714
     64  CB        40.3030  -11.3080  -42.9160 C.3    51  THR51       0.1808
     65  OG1       41.5250  -11.8540  -43.4280 O.3    51  THR51      -0.2208
     66  CG2       40.6980  -10.7290  -41.5560 C.3    51  THR51       0.0379
     67  N         38.8460  -12.7380  -45.1640 N.am   52  LEU52      -0.1963
     68  CA        38.8310  -13.4520  -46.4400 C.3    52  LEU52       0.1728
     69  C         40.2290  -13.9460  -46.7770 C.2    52  LEU52       0.2616
     70  O         40.4150  -15.1130  -47.1290 O.2    52  LEU52      -0.2715
     71  CB        38.2960  -12.5600  -47.5650 C.3    52  LEU52       0.0311
     72  CG        38.4870  -13.0650  -49.0030 C.3    52  LEU52       0.0022
     73  CD1       37.4550  -14.1160  -49.3890 C.3    52  LEU52       0.0001
     74  CD2       38.4620  -11.9010  -49.9840 C.3    52  LEU52       0.0001
     75  N         41.2030  -13.0480  -46.6470 N.am   53  LYS53      -0.1977
     76  CA        42.6090  -13.3560  -46.9070 C.3    53  LYS53       0.1596
     77  C         43.1570  -14.4000  -45.9290 C.2    53  LYS53       0.2287
     78  O         44.1240  -15.1060  -46.2330 O.2    53  LYS53      -0.2864
     79  CB        43.4440  -12.0760  -46.8550 C.3    53  LYS53       0.0298
     80  CG        43.0260  -11.0280  -47.8810 C.3    53  LYS53       0.0038
     81  CD        44.0410   -9.9030  -47.9730 C.3    53  LYS53       0.0206
     82  CE        43.7370   -8.9770  -49.1390 C.3    53  LYS53       0.1093
     83  NZ        44.6000   -7.7610  -49.1030 N.3    53  LYS53      -0.1314
     84  N         41.1500  -16.9920  -44.6420 N.3    55  PHE55      -0.1241
     85  CA        40.5760  -18.2580  -45.1030 C.3    55  PHE55       0.1605
     86  C         41.3460  -18.8330  -46.2790 C.2    55  PHE55       0.2264
     87  O         41.7630  -19.9880  -46.2490 O.2    55  PHE55      -0.2867
     88  CB        39.1190  -18.0700  -45.5260 C.3    55  PHE55       0.0534
     89  CG        38.1900  -17.7400  -44.4020 C.ar   55  PHE55      -0.0203
     90  CD1       37.3820  -16.6140  -44.4740 C.ar   55  PHE55      -0.0042
     91  CD2       38.1050  -18.5590  -43.2830 C.ar   55  PHE55      -0.0042
     92  CE1       36.5100  -16.2980  -43.4440 C.ar   55  PHE55      -0.0003
     93  CE2       37.2350  -18.2510  -42.2460 C.ar   55  PHE55      -0.0003
     94  CZ        36.4330  -17.1200  -42.3300 C.ar   55  PHE55      -0.0000
     95  N         38.3320  -16.8780  -33.8740 N.3    91  VAL91      -0.1231
     96  CA        37.0820  -16.8720  -33.1000 C.3    91  VAL91       0.1692
     97  C         36.1680  -18.0680  -33.4470 C.2    91  VAL91       0.2591
     98  O         35.2210  -18.3650  -32.7130 O.2    91  VAL91      -0.2718
     99  CB        36.3270  -15.5180  -33.2190 C.3    91  VAL91       0.0266
    100  CG1       35.3450  -15.5310  -34.3920 C.3    91  VAL91       0.0020
    101  CG2       35.6180  -15.1810  -31.9090 C.3    91  VAL91       0.0020
    102  N         36.4540  -18.7370  -34.5670 N.am   92  VAL92      -0.1980
    103  CA        35.8940  -20.0610  -34.8460 C.3    92  VAL92       0.1595
    104  C         36.3880  -20.9820  -33.7400 C.2    92  VAL92       0.2287
    105  O         35.6050  -21.6470  -33.0560 O.2    92  VAL92      -0.2864
    106  CB        36.3890  -20.6430  -36.2000 C.3    92  VAL92       0.0276
    107  CG1       35.8530  -22.0470  -36.4290 C.3    92  VAL92       0.0022
    108  CG2       35.9820  -19.7780  -37.3330 C.3    92  VAL92       0.0022
    109  N         27.5980  -11.4820  -48.8150 N.3   124  THR124     -0.1203
    110  CA        27.8310  -10.0880  -48.3690 C.3   124  THR124      0.1994
    111  C         29.2540   -9.5330  -48.4710 C.2   124  THR124      0.2618
    112  O         29.4560   -8.5030  -49.1190 O.2   124  THR124     -0.2717
    113  CB        27.2750   -9.8260  -46.9550 C.3   124  THR124      0.1784
    114  OG1       27.5130  -10.9640  -46.1190 O.3   124  THR124     -0.2211
    115  CG2       25.7630   -9.7020  -46.9870 C.3   124  THR124      0.0376
    116  N         30.2310  -10.1710  -47.8250 N.am  125  ASN125     -0.1960
    117  CA        31.6220   -9.6940  -47.9280 C.3   125  ASN125      0.1819
    118  C         32.6170  -10.6960  -48.5200 C.2   125  ASN125      0.2621
    119  O         33.8000  -10.7370  -48.1510 O.2   125  ASN125     -0.2715
    120  CB        32.1090   -9.1120  -46.6050 C.3   125  ASN125      0.1195
    121  CG        31.6860   -7.6750  -46.4250 C.2   125  ASN125      0.2630
    122  OD1       30.5030   -7.3840  -46.2450 O.2   125  ASN125     -0.2716
    123  ND2       32.6480   -6.7620  -46.4820 N.am  125  ASN125     -0.0877
    124  N         32.1150  -11.4740  -49.4730 N.am  126  MET126     -0.1977
    125  CA        32.8690  -12.5250  -50.1260 C.3   126  MET126      0.1605
    126  C         32.2450  -12.7610  -51.5010 C.2   126  MET126      0.2287
    127  O         31.1380  -13.2990  -51.5840 O.2   126  MET126     -0.2864
    128  CB        32.7990  -13.8020  -49.2820 C.3   126  MET126      0.0413
    129  CG        33.8910  -14.8210  -49.5590 C.3   126  MET126      0.0598
    130  SD        33.9290  -16.1520  -48.3380 S.3   126  MET126     -0.1393
    131  CE        34.3710  -15.2630  -46.8480 C.3   126  MET126      0.0692
    132  N         24.4570  -23.2960  -44.0380 N.3   182  THR182     -0.1203
    133  CA        24.9500  -21.9230  -43.9890 C.3   182  THR182      0.1994
    134  C         26.3970  -21.8450  -44.4830 C.2   182  THR182      0.2618
    135  O         27.1460  -22.8180  -44.3860 O.2   182  THR182     -0.2717
    136  CB        24.7970  -21.3060  -42.5680 C.3   182  THR182      0.1784
    137  OG1       25.3910  -20.0030  -42.5420 O.3   182  THR182     -0.2211
    138  CG2       25.6130  -22.0580  -41.5380 C.3   182  THR182      0.0376
    139  N         26.7720  -20.6870  -45.0220 N.am  183  ARG183     -0.1965
    140  CA        28.1340  -20.4330  -45.4940 C.3   183  ARG183      0.1729
    141  C         29.1490  -20.6730  -44.3810 C.2   183  ARG183      0.2616
    142  O         30.3040  -21.0250  -44.6420 O.2   183  ARG183     -0.2715
    143  CB        28.2570  -18.9950  -45.9930 C.3   183  ARG183      0.0348
    144  CG        29.5130  -18.7080  -46.8070 C.3   183  ARG183      0.0492
    145  CD        30.2730  -17.4420  -46.3900 C.3   183  ARG183      0.2205
    146  NE        29.4950  -16.2010  -46.4850 N.pl3 183  ARG183     -0.0865
    147  CZ        29.8980  -15.0260  -46.0040 C.cat 183  ARG183      0.5346
    148  NH1       31.0690  -14.9120  -45.3940 N.pl3 183  ARG183      0.1354
    149  NH2       29.1340  -13.9560  -46.1280 N.pl3 183  ARG183      0.1354
    150  N         28.6970  -20.4880  -43.1410 N.am  184  GLU184     -0.1977
    151  CA        29.5290  -20.6570  -41.9530 C.3   184  GLU184      0.1602
    152  C         30.0990  -22.0620  -41.8350 C.2   184  GLU184      0.2287
    153  O         31.0640  -22.2860  -41.1050 O.2   184  GLU184     -0.2864
    154  CB        28.7480  -20.2770  -40.6910 C.3   184  GLU184      0.0415
    155  CG        28.4630  -18.7860  -40.5680 C.3   184  GLU184      0.1163
    156  CD        29.7280  -17.9470  -40.5640 C.2   184  GLU184      0.3649
    157  OE1       30.6990  -18.3590  -39.8960 O.co2 184  GLU184     -0.2457
    158  OE2       29.7530  -16.8810  -41.2220 O.co2 184  GLU184     -0.2457
    159  N         33.4020  -21.8290  -43.9680 N.3   187  LEU187     -0.1231
    160  CA        34.3600  -21.0240  -43.1970 C.3   187  LEU187      0.1693
    161  C         34.8840  -21.6950  -41.9150 C.2   187  LEU187      0.2592
    162  O         36.0640  -21.5560  -41.5860 O.2   187  LEU187     -0.2718
    163  CB        33.7770  -19.6400  -42.8650 C.3   187  LEU187      0.0284
    164  CG        33.1650  -18.7590  -43.9590 C.3   187  LEU187      0.0019
    165  CD1       32.7930  -17.4090  -43.3730 C.3   187  LEU187      0.0001
    166  CD2       34.1040  -18.5790  -45.1380 C.3   187  LEU187      0.0001
    167  N         34.0150  -22.4100  -41.1960 N.am  188  ASP188     -0.1974
    168  CA        34.4280  -23.1180  -39.9800 C.3   188  ASP188      0.1709
    169  C         35.2640  -24.3600  -40.2820 C.2   188  ASP188      0.2293
    170  O         36.0410  -24.8120  -39.4390 O.2   188  ASP188     -0.2864
    171  CB        33.2200  -23.5040  -39.1360 C.3   188  ASP188      0.1436
    172  CG        32.6120  -22.3280  -38.4120 C.2   188  ASP188      0.3671
    173  OD1       33.3150  -21.3240  -38.1760 O.co2 188  ASP188     -0.2456
    174  OD2       31.4240  -22.3270  -38.0320 O.co2 188  ASP188     -0.2456
    175  N         24.7350  -28.8800  -37.6030 N.3   200  THR200     -0.1203
    176  CA        24.5930  -27.5880  -36.9230 C.3   200  THR200      0.1994
    177  C         24.4560  -26.4390  -37.9210 C.2   200  THR200      0.2617
    178  O         23.9010  -25.3860  -37.5990 O.2   200  THR200     -0.2717
    179  CB        25.7660  -27.3160  -35.9730 C.3   200  THR200      0.1784
    180  OG1       27.0010  -27.4110  -36.6930 O.3   200  THR200     -0.2211
    181  CG2       25.8630  -28.4050  -34.9120 C.3   200  THR200      0.0376
    182  N         24.9560  -26.6530  -39.1330 N.am  201  TYR201     -0.1975
    183  CA        24.9680  -25.6170  -40.1570 C.3   201  TYR201      0.1639
    184  C         23.7790  -25.7120  -41.1040 C.2   201  TYR201      0.2290
    185  O         23.4010  -24.7170  -41.7240 O.2   201  TYR201     -0.2864
    186  CB        26.2720  -25.6740  -40.9460 C.3   201  TYR201      0.0560
    187  CG        27.5020  -25.4960  -40.0920 C.ar  201  TYR201     -0.0198
    188  CD1       28.1910  -26.6020  -39.5920 C.ar  201  TYR201     -0.0009
    189  CD2       27.9740  -24.2220  -39.7740 C.ar  201  TYR201     -0.0009
    190  CE1       29.3220  -26.4460  -38.8000 C.ar  201  TYR201      0.0417
    191  CE2       29.1070  -24.0520  -38.9850 C.ar  201  TYR201      0.0417
    192  CZ        29.7750  -25.1700  -38.5030 C.ar  201  TYR201      0.1957
    193  OH        30.8920  -25.0190  -37.7200 O.3   201  TYR201     -0.2866
@<TRIPOS>BOND
     1   127   126    2
     2   126   125    1
     3   125   124    1
     4   125   128    1
     5    74    72    1
     6   129   128    1
     7   129   130    1
     8   124   118   am
     9    73    72    1
    10    82    83    1
    11    82    81    1
    12   112   111    2
    13    72    71    1
    14   109   110    1
    15   118   119    2
    16   118   117    1
    17   111   110    1
    18   111   116   am
    19   110   113    1
    20   130   131    1
    21    81    80    1
    22   117   116    1
    23   117   120    1
    24    80    79    1
    25    71    68    1
    26    70    69    2
    27     1     2    1
    28   115   113    1
    29   113   114    1
    30    76    79    1
    31    76    75    1
    32    76    77    1
    33   144   145    1
    34   144   143    1
    35    69    75   am
    36    69    68    1
    37   120   121    1
    38   146   145    1
    39   146   147    2
    40   123   121   am
    41    68    67    1
    42   121   122    2
    43     4     3    2
    44    86    87    2
    45    86    85    1
    46    78    77    2
    47   149   147    1
    48   147   148    1
    49   143   140    1
    50     2     3    1
    51     2     5    1
    52    88    85    1
    53    88    89    1
    54   140   139    1
    55   140   141    1
    56     3     8   am
    57     5     6    1
    58     5     7    1
    59    67    62   am
    60   166   164    1
    61    85    84    1
    62   139   134   am
    63   142   141    2
    64   134   135    2
    65   134   133    1
    66    90    89   ar
    67    90    92   ar
    68    89    91   ar
    69   141   150   am
    70     8     9    1
    71   132   133    1
    72    62    63    2
    73    62    61    1
    74   133   136    1
    75   159   160    1
    76   164   165    1
    77   164   163    1
    78    12     9    1
    79    12    13    1
    80     9    10    1
    81    92    94   ar
    82    65    64    1
    83    91    93   ar
    84    36    35    2
    85   160   163    1
    86   160   161    1
    87   150   151    1
    88    37    34    1
    89    37    38    1
    90    34    35    1
    91    34    33    1
    92    64    61    1
    93    64    66    1
    94    61    60    1
    95   136   137    1
    96   136   138    1
    97    94    93   ar
    98    10    14   am
    99    10    11    2
   100    33    39    1
   101    33    28   am
   102    14    15    1
   103   151   152    1
   104   151   154    1
   105    38    39    1
   106   161   162    2
   107   161   167   am
   108    24    23    1
   109   152   153    2
   110   185   184    2
   111    29    28    2
   112    21    20    2
   113    22    23    1
   114    22    19    1
   115    60    51   am
   116    23    25    1
   117    28    27    1
   118   158   156   ar
   119   167   168    1
   120    18    19    1
   121    18    16   am
   122   184   183    1
   123   186   183    1
   124   186   187    1
   125    20    19    1
   126    20    26   am
   127    52    51    2
   128   154   155    1
   129    15    16    1
   130    51    50    1
   131   155   156    1
   132   156   157   ar
   133   169   168    1
   134   169   170    2
   135    27    26    1
   136    27    30    1
   137    16    17    2
   138   183   182    1
   139   187   189   ar
   140   187   188   ar
   141   168   171    1
   142   189   191   ar
   143   188   190   ar
   144    59    57    1
   145    50    53    1
   146    50    49    1
   147    56    57    2
   148    56    55    1
   149    54    53    1
   150    54    55    1
   151   171   172    1
   152   182   177   am
   153   191   192   ar
   154    57    58    1
   155    30    31    1
   156    30    32    1
   157   190   192   ar
   158    43    42    2
   159   192   193    1
   160   172   173   ar
   161   172   174   ar
   162    49    42   am
   163   177   178    2
   164   177   176    1
   165    42    41    1
   166   175   176    1
   167   108   106    1
   168   176   179    1
   169   180   179    1
   170    44    41    1
   171    44    45    1
   172    41    40    1
   173   107   106    1
   174   106   103    1
   175   179   181    1
   176    47    46   ar
   177    46    48   ar
   178    46    45    1
   179   103   102    1
   180   103   104    1
   181   102    97   am
   182   100    99    1
   183    95    96    1
   184   104   105    2
   185    97    96    1
   186    97    98    2
   187    99    96    1
   188    99   101    1
