@<TRIPOS>MOLECULE
tmp/3cojH00.pdb
 145 139 0 0 0
SMALL
GASTEIGER

@<TRIPOS>ATOM
      1  N         17.1860   48.3120  -14.1390 N.3     7  VAL7       -0.1231
      2  CA        17.7200   49.6130  -13.7780 C.3     7  VAL7        0.1692
      3  C         19.2350   49.5310  -13.7050 C.2     7  VAL7        0.2593
      4  O         19.7800   48.5400  -13.2210 O.2     7  VAL7       -0.2718
      5  CB        17.1620   50.0610  -12.4230 C.3     7  VAL7        0.0266
      6  CG1       17.9030   51.2490  -11.9210 C.3     7  VAL7        0.0020
      7  CG2       15.6900   50.3820  -12.5330 C.3     7  VAL7        0.0020
      8  N         19.9100   50.5610  -14.2020 N.am    8  SER8       -0.1938
      9  CA        21.3580   50.6570  -14.0640 C.3     8  SER8        0.2055
     10  C         21.8160   52.0860  -13.8260 C.2     8  SER8        0.2644
     11  O         21.4000   53.0060  -14.5370 O.2     8  SER8       -0.2714
     12  CB        22.0680   50.0940  -15.2880 C.3     8  SER8        0.2130
     13  OG        23.4670   50.2850  -15.1750 O.3     8  SER8       -0.2179
     14  N         22.6760   52.2580  -12.8210 N.am    9  GLY9       -0.1939
     15  CA        23.3130   53.5460  -12.5220 C.3     9  GLY9        0.2014
     16  C         22.5890   54.4050  -11.5050 C.2     9  GLY9        0.2638
     17  O         22.8050   55.6180  -11.4450 O.2     9  GLY9       -0.2714
     18  N         21.7430   53.7740  -10.6940 N.am   10  LEU10      -0.1977
     19  CA        20.9140   54.5000   -9.7380 C.3    10  LEU10       0.1596
     20  C         21.3150   54.2560   -8.2890 C.2    10  LEU10       0.2287
     21  O         21.6090   53.1210   -7.9000 O.2    10  LEU10      -0.2864
     22  CB        19.4400   54.1320   -9.9160 C.3    10  LEU10       0.0297
     23  CG        18.7300   54.3350  -11.2560 C.3    10  LEU10       0.0022
     24  CD1       17.2420   54.3460  -10.9880 C.3    10  LEU10       0.0001
     25  CD2       19.1470   55.6040  -11.9930 C.3    10  LEU10       0.0001
     26  N         20.2280   53.6930   -4.5270 N.3    12  PRO12      -0.2116
     27  CA        19.0460   53.1140   -3.8840 C.3    12  PRO12       0.1372
     28  C         17.8930   54.0950   -3.6290 C.2    12  PRO12       0.2244
     29  O         16.7350   53.6810   -3.6340 O.2    12  PRO12      -0.2868
     30  CB        19.6040   52.5840   -2.5640 C.3    12  PRO12       0.0268
     31  CG        21.0000   52.1720   -2.9080 C.3    12  PRO12       0.0207
     32  CD        21.4760   53.1440   -3.9610 C.3    12  PRO12       0.0892
     33  N         26.0880   57.1300  -17.6910 N.3    50  GLU50      -0.1231
     34  CA        27.3290   56.4890  -17.2710 C.3    50  GLU50       0.1699
     35  C         27.6030   55.2670  -18.1540 C.2    50  GLU50       0.2592
     36  O         26.9800   55.1040  -19.2050 O.2    50  GLU50      -0.2718
     37  CB        27.2340   56.0860  -15.7990 C.3    50  GLU50       0.0402
     38  CG        27.3260   57.2470  -14.8190 C.3    50  GLU50       0.1161
     39  CD        28.7420   57.5170  -14.3390 C.2    50  GLU50       0.3649
     40  OE1       29.0440   58.6830  -14.0040 O.co2  50  GLU50      -0.2457
     41  OE2       29.5560   56.5710  -14.2810 O.co2  50  GLU50      -0.2457
     42  N         28.5340   54.4140  -17.7400 N.am   51  ARG51      -0.1966
     43  CA        28.8450   53.2100  -18.4960 C.3    51  ARG51       0.1729
     44  C         28.8170   52.0180  -17.5550 C.2    51  ARG51       0.2617
     45  O         29.6230   51.9340  -16.6230 O.2    51  ARG51      -0.2715
     46  CB        30.2050   53.3590  -19.1670 C.3    51  ARG51       0.0348
     47  CG        30.3920   52.5150  -20.3990 C.3    51  ARG51       0.0492
     48  CD        31.0210   53.2820  -21.5410 C.3    51  ARG51       0.2205
     49  NE        32.0940   52.5450  -22.2000 N.pl3  51  ARG51      -0.0865
     50  CZ        33.3850   52.6750  -21.9130 C.cat  51  ARG51       0.5346
     51  NH1       33.7890   53.5220  -20.9710 N.pl3  51  ARG51       0.1354
     52  NH2       34.2810   51.9580  -22.5760 N.pl3  51  ARG51       0.1354
     53  N         27.8700   51.1120  -17.7780 N.am   52  THR52      -0.1937
     54  CA        27.6950   49.9680  -16.8870 C.3    52  THR52       0.2028
     55  C         27.6020   48.6640  -17.6470 C.2    52  THR52       0.2642
     56  O         27.5380   48.6600  -18.8730 O.2    52  THR52      -0.2714
     57  CB        26.4550   50.1460  -15.9760 C.3    52  THR52       0.1808
     58  OG1       25.6140   51.1830  -16.4930 O.3    52  THR52      -0.2208
     59  CG2       26.8610   50.6880  -14.6240 C.3    52  THR52       0.0379
     60  N         27.6080   47.5600  -16.9030 N.am   53  LEU53      -0.1963
     61  CA        27.4470   46.2280  -17.4750 C.3    53  LEU53       0.1728
     62  C         26.0940   46.1250  -18.1650 C.2    53  LEU53       0.2616
     63  O         25.9810   45.5730  -19.2680 O.2    53  LEU53      -0.2715
     64  CB        27.5570   45.1500  -16.3860 C.3    53  LEU53       0.0311
     65  CG        27.2490   43.6900  -16.7650 C.3    53  LEU53       0.0022
     66  CD1       28.4890   42.9670  -17.2710 C.3    53  LEU53       0.0001
     67  CD2       26.6380   42.9370  -15.5900 C.3    53  LEU53       0.0001
     68  N         25.0770   46.6720  -17.5050 N.am   54  LYS54      -0.1977
     69  CA        23.6990   46.5550  -17.9580 C.3    54  LYS54       0.1596
     70  C         23.4560   47.4560  -19.1600 C.2    54  LYS54       0.2287
     71  O         22.6150   47.1640  -20.0080 O.2    54  LYS54      -0.2864
     72  CB        22.7530   46.8810  -16.8060 C.3    54  LYS54       0.0298
     73  CG        23.2480   46.3360  -15.4790 C.3    54  LYS54       0.0038
     74  CD        22.1630   46.2440  -14.4380 C.3    54  LYS54       0.0206
     75  CE        22.6550   45.3970  -13.2790 C.3    54  LYS54       0.1093
     76  NZ        21.7790   45.4840  -12.0840 N.3    54  LYS54      -0.1314
     77  N         25.9230   48.0990  -21.4860 N.3    56  PHE56      -0.1241
     78  CA        26.5620   47.3760  -22.5860 C.3    56  PHE56       0.1605
     79  C         25.7090   46.2320  -23.1090 C.2    56  PHE56       0.2264
     80  O         25.6220   46.0260  -24.3160 O.2    56  PHE56      -0.2867
     81  CB        27.9130   46.8170  -22.1480 C.3    56  PHE56       0.0534
     82  CG        29.0370   47.8140  -22.1830 C.ar   56  PHE56      -0.0203
     83  CD1       29.8090   48.0400  -21.0480 C.ar   56  PHE56      -0.0042
     84  CD2       29.3450   48.5060  -23.3510 C.ar   56  PHE56      -0.0042
     85  CE1       30.8610   48.9450  -21.0690 C.ar   56  PHE56      -0.0003
     86  CE2       30.3920   49.4130  -23.3790 C.ar   56  PHE56      -0.0003
     87  CZ        31.1530   49.6280  -22.2380 C.ar   56  PHE56      -0.0000
     88  N         30.9090   58.2740  -22.7620 N.3    92  VAL92      -0.1245
     89  CA        32.2370   58.8780  -22.8190 C.3    92  VAL92       0.1561
     90  C         33.0390   58.3110  -24.0070 C.2    92  VAL92       0.2260
     91  O         33.9910   58.9390  -24.4800 O.2    92  VAL92      -0.2867
     92  CB        32.9850   58.7200  -21.4740 C.3    92  VAL92       0.0252
     93  CG1       33.5750   57.3140  -21.3310 C.3    92  VAL92       0.0019
     94  CG2       34.0510   59.8000  -21.3120 C.3    92  VAL92       0.0019
     95  N         38.0690   42.0940  -14.7630 N.3   125  THR125     -0.1203
     96  CA        37.7380   42.8260  -13.5350 C.3   125  THR125      0.1994
     97  C         36.2630   42.7260  -13.1220 C.2   125  THR125      0.2618
     98  O         35.7870   41.6440  -12.7660 O.2   125  THR125     -0.2717
     99  CB        38.2070   44.3100  -13.6170 C.3   125  THR125      0.1784
    100  OG1       38.0240   44.8120  -14.9510 O.3   125  THR125     -0.2211
    101  CG2       39.7160   44.4140  -13.3830 C.3   125  THR125      0.0376
    102  N         35.5520   43.8520  -13.1710 N.am  126  ASN126     -0.1960
    103  CA        34.1690   43.9420  -12.6900 C.3   126  ASN126      0.1819
    104  C         33.1560   43.3010  -13.6280 C.2   126  ASN126      0.2621
    105  O         31.9470   43.5330  -13.5190 O.2   126  ASN126     -0.2715
    106  CB        33.7990   45.4000  -12.4330 C.3   126  ASN126      0.1195
    107  CG        34.6480   46.0300  -11.3580 C.2   126  ASN126      0.2630
    108  OD1       35.8710   45.8760  -11.3380 O.2   126  ASN126     -0.2716
    109  ND2       34.0030   46.7490  -10.4520 N.am  126  ASN126     -0.0877
    110  N         33.6720   42.4850  -14.5390 N.am  127  MET127     -0.1977
    111  CA        32.8680   41.7700  -15.5040 C.3   127  MET127      0.1605
    112  C         33.2470   40.2830  -15.4810 C.2   127  MET127      0.2287
    113  O         34.3010   39.8990  -16.0040 O.2   127  MET127     -0.2864
    114  CB        33.0810   42.3730  -16.8930 C.3   127  MET127      0.0413
    115  CG        32.0100   42.0080  -17.9010 C.3   127  MET127      0.0598
    116  SD        32.0310   43.0780  -19.3480 S.3   127  MET127     -0.1393
    117  CE        31.4470   44.6300  -18.6660 C.3   127  MET127      0.0692
    118  N         40.5250   44.7440  -23.8240 N.3   182  ARG182     -0.1231
    119  CA        39.0990   44.5890  -23.4940 C.3   182  ARG182      0.1694
    120  C         38.3000   45.8350  -23.8850 C.2   182  ARG182      0.2591
    121  O         37.0810   45.7730  -24.0620 O.2   182  ARG182     -0.2718
    122  CB        38.9250   44.2630  -22.0000 C.3   182  ARG182      0.0321
    123  CG        37.5970   43.6070  -21.6280 C.3   182  ARG182      0.0489
    124  CD        36.5590   44.5510  -21.0340 C.3   182  ARG182      0.2205
    125  NE        36.3370   44.3210  -19.6060 N.pl3 182  ARG182     -0.0865
    126  CZ        36.8290   45.0700  -18.6240 C.cat 182  ARG182      0.5346
    127  NH1       37.5940   46.1220  -18.8890 N.pl3 182  ARG182      0.1354
    128  NH2       36.5540   44.7650  -17.3630 N.pl3 182  ARG182      0.1354
    129  N         39.0100   46.9520  -24.0380 N.am  183  GLU183     -0.1979
    130  CA        38.4240   48.2250  -24.4580 C.3   183  GLU183      0.1602
    131  C         37.8620   48.2000  -25.8830 C.2   183  GLU183      0.2287
    132  O         37.1600   49.1270  -26.2900 O.2   183  GLU183     -0.2864
    133  CB        39.4490   49.3550  -24.3120 C.3   183  GLU183      0.0415
    134  CG        39.8540   49.6410  -22.8720 C.3   183  GLU183      0.1163
    135  CD        38.6750   50.0320  -21.9980 C.2   183  GLU183      0.3649
    136  OE1       38.0610   51.0900  -22.2590 O.co2 183  GLU183     -0.2457
    137  OE2       38.3640   49.2830  -21.0470 O.co2 183  GLU183     -0.2457
    138  N         34.0800   47.0460  -25.6790 N.3   186  LEU186     -0.1245
    139  CA        33.3150   48.1030  -25.0280 C.3   186  LEU186      0.1561
    140  C         33.0220   49.2930  -25.9540 C.2   186  LEU186      0.2260
    141  O         31.9070   49.8210  -25.9630 O.2   186  LEU186     -0.2867
    142  CB        34.0260   48.5580  -23.7500 C.3   186  LEU186      0.0270
    143  CG        34.5000   47.4670  -22.7780 C.3   186  LEU186      0.0019
    144  CD1       35.2340   48.0850  -21.5950 C.3   186  LEU186      0.0001
    145  CD2       33.3600   46.5710  -22.2970 C.3   186  LEU186      0.0001
@<TRIPOS>BOND
     1   132   131    2
     2   141   140    2
     3   140   139    1
     4   131   130    1
     5   138   139    1
     6   139   142    1
     7    91    90    2
     8   130   133    1
     9   130   129    1
    10    80    79    2
    11   133   134    1
    12   121   120    2
    13   129   120   am
    14    90    89    1
    15   120   119    1
    16   118   119    1
    17   142   143    1
    18   119   122    1
    19    86    84   ar
    20    86    87   ar
    21    84    82   ar
    22    79    78    1
    23   134   135    1
    24    89    88    1
    25    89    92    1
    26   143   145    1
    27   143   144    1
    28    78    81    1
    29    78    77    1
    30    52    50    1
    31   136   135   ar
    32    87    85   ar
    33    49    50    2
    34    49    48    1
    35    82    81    1
    36    82    83   ar
    37   122   123    1
    38   135   137   ar
    39    50    51    1
    40   123   124    1
    41    48    47    1
    42    92    93    1
    43    92    94    1
    44    85    83   ar
    45   124   125    1
    46    47    46    1
    47    71    70    2
    48   125   126    2
    49   116   117    1
    50   116   115    1
    51    63    62    2
    52    36    35    2
    53    46    43    1
    54    70    69    1
    55   127   126    1
    56    56    55    2
    57   126   128    1
    58    43    42    1
    59    43    44    1
    60    62    68   am
    61    62    61    1
    62    35    42   am
    63    35    34    1
    64    69    68    1
    65    69    72    1
    66   115   114    1
    67    53    44   am
    68    53    54    1
    69    33    34    1
    70    55    60   am
    71    55    54    1
    72    44    45    2
    73    61    60    1
    74    61    64    1
    75    66    65    1
    76    34    37    1
    77   114   111    1
    78    54    57    1
    79    72    73    1
    80    65    64    1
    81    65    67    1
    82    58    57    1
    83   113   112    2
    84    57    59    1
    85    37    38    1
    86   111   112    1
    87   111   110    1
    88    73    74    1
    89    12    13    1
    90    12     9    1
    91   100    99    1
    92    38    39    1
    93    95    96    1
    94   110   104   am
    95    11    10    2
    96    74    75    1
    97    39    41   ar
    98    39    40   ar
    99     8     9    1
   100     8     3   am
   101     1     2    1
   102     9    10    1
   103    10    14   am
   104     2     3    1
   105     2     5    1
   106     3     4    2
   107   104   105    2
   108   104   103    1
   109    99    96    1
   110    99   101    1
   111    96    97    1
   112    75    76    1
   113   102    97   am
   114   102   103    1
   115    97    98    2
   116    14    15    1
   117   103   106    1
   118     7     5    1
   119    15    16    1
   120   106   107    1
   121     5     6    1
   122    25    23    1
   123    16    17    2
   124    16    18   am
   125   107   108    2
   126   107   109   am
   127    23    24    1
   128    23    22    1
   129    18    19    1
   130    22    19    1
   131    19    20    1
   132    20    21    2
   133    26    32    1
   134    26    27    1
   135    32    31    1
   136    27    28    1
   137    27    30    1
   138    29    28    2
   139    31    30    1
