@<TRIPOS>MOLECULE
tmp/3cojG00.pdb
 138 134 0 0 0
SMALL
GASTEIGER

@<TRIPOS>ATOM
      1  N          9.1960   39.2390   -3.3510 N.3     6  VAL6       -0.1231
      2  CA         8.6410   39.6760   -2.0820 C.3     6  VAL6        0.1692
      3  C          7.1270   39.7300   -2.1870 C.2     6  VAL6        0.2593
      4  O          6.5910   39.7920   -3.2950 O.2     6  VAL6       -0.2718
      5  CB         9.1800   41.0550   -1.6780 C.3     6  VAL6        0.0266
      6  CG1       10.6750   40.9920   -1.4630 C.3     6  VAL6        0.0020
      7  CG2        8.8370   42.1030   -2.7250 C.3     6  VAL6        0.0020
      8  N          6.4440   39.7040   -1.0440 N.am    7  SER7       -0.1938
      9  CA         4.9840   39.8010   -1.0180 C.3     7  SER7        0.2055
     10  C          4.4500   40.3960    0.2770 C.2     7  SER7        0.2644
     11  O          5.0200   40.1810    1.3500 O.2     7  SER7       -0.2714
     12  CB         4.3450   38.4320   -1.2500 C.3     7  SER7        0.2130
     13  OG         2.9320   38.5330   -1.3200 O.3     7  SER7       -0.2179
     14  N          3.3460   41.1320    0.1610 N.am    8  GLY8       -0.1939
     15  CA         2.6700   41.7470    1.3020 C.3     8  GLY8        0.2014
     16  C          3.4950   42.7760    2.0550 C.2     8  GLY8        0.2639
     17  O          3.2970   42.9670    3.2530 O.2     8  GLY8       -0.2714
     18  N          4.4090   43.4430    1.3520 N.am    9  LEU9       -0.1963
     19  CA         5.3100   44.4190    1.9700 C.3     9  LEU9        0.1728
     20  C          4.9080   45.8700    1.6970 C.2     9  LEU9        0.2617
     21  O          3.7930   46.1480    1.2570 O.2     9  LEU9       -0.2715
     22  CB         6.7560   44.1840    1.5120 C.3     9  LEU9        0.0311
     23  CG         7.4890   42.9090    1.9340 C.3     9  LEU9        0.0022
     24  CD1        8.9150   42.9320    1.4050 C.3     9  LEU9        0.0001
     25  CD2        7.4870   42.7320    3.4470 C.3     9  LEU9        0.0001
     26  N          5.8210   46.7920    1.9880 N.am   10  THR10      -0.1937
     27  CA         5.6660   48.1970    1.6400 C.3    10  THR10       0.2013
     28  C          6.8600   48.5990    0.7710 C.2    10  THR10       0.2484
     29  O          7.8550   47.8700    0.7300 O.2    10  THR10      -0.2729
     30  CB         5.6070   49.0730    2.9120 C.3    10  THR10       0.1807
     31  OG1        6.7050   48.7500    3.7730 O.3    10  THR10      -0.2208
     32  CG2        4.3790   48.7400    3.7530 C.3    10  THR10       0.0379
     33  N          6.7620   49.7250    0.0540 N.am   11  PRO11      -0.2726
     34  CA         7.9160   50.2940   -0.6610 C.3    11  PRO11       0.1402
     35  C          9.2290   50.2560    0.1430 C.2    11  PRO11       0.2269
     36  O         10.2290   49.7190   -0.3430 O.2    11  PRO11      -0.2865
     37  CB         7.4860   51.7460   -0.9430 C.3    11  PRO11       0.0296
     38  CG         6.1010   51.8960   -0.3570 C.3    11  PRO11       0.0237
     39  CD         5.5420   50.5190   -0.1840 C.3    11  PRO11       0.0939
     40  N         -0.1200   37.3720    5.6190 N.3    49  GLU49      -0.1231
     41  CA        -1.2610   37.7370    4.7700 C.3    49  GLU49       0.1699
     42  C         -1.5340   36.7070    3.6620 C.2    49  GLU49       0.2592
     43  O         -0.7330   35.7970    3.4380 O.2    49  GLU49      -0.2718
     44  CB        -1.0180   39.1130    4.1530 C.3    49  GLU49       0.0402
     45  CG        -1.0160   40.2570    5.1540 C.3    49  GLU49       0.1161
     46  CD        -2.4000   40.8300    5.4050 C.2    49  GLU49       0.3649
     47  OE1       -2.5030   41.8250    6.1530 O.co2  49  GLU49      -0.2457
     48  OE2       -3.3870   40.2980    4.8540 O.co2  49  GLU49      -0.2457
     49  N         -2.6600   36.8590    2.9670 N.am   50  ARG50      -0.1966
     50  CA        -3.0940   35.8690    1.9740 C.3    50  ARG50       0.1729
     51  C         -3.1100   36.4530    0.5520 C.2    50  ARG50       0.2617
     52  O         -4.1730   36.6460   -0.0490 O.2    50  ARG50      -0.2715
     53  CB        -4.4670   35.3220    2.3720 C.3    50  ARG50       0.0348
     54  CG        -4.6850   33.8530    2.0870 C.3    50  ARG50       0.0492
     55  CD        -5.7730   33.2370    2.9450 C.3    50  ARG50       0.2205
     56  NE        -6.5350   32.2180    2.2320 N.pl3  50  ARG50      -0.0865
     57  CZ        -7.7460   32.4000    1.7150 C.cat  50  ARG50       0.5346
     58  NH1       -8.3590   33.5730    1.8180 N.pl3  50  ARG50       0.1354
     59  NH2       -8.3500   31.4000    1.0890 N.pl3  50  ARG50       0.1354
     60  N         -1.9180   36.7300    0.0260 N.am   51  THR51      -0.1937
     61  CA        -1.7510   37.3710   -1.2840 C.3    51  THR51       0.2028
     62  C         -1.6920   36.3360   -2.4010 C.2    51  THR51       0.2642
     63  O         -1.4000   35.1620   -2.1420 O.2    51  THR51      -0.2714
     64  CB        -0.4520   38.1990   -1.3100 C.3    51  THR51       0.1808
     65  OG1        0.6410   37.3810   -0.8680 O.3    51  THR51      -0.2208
     66  CG2       -0.4970   39.3260   -0.2860 C.3    51  THR51       0.0379
     67  N         -1.9510   36.7750   -3.6370 N.am   52  LEU52      -0.1963
     68  CA        -1.8020   35.9100   -4.8130 C.3    52  LEU52       0.1728
     69  C         -0.4670   35.1590   -4.7960 C.2    52  LEU52       0.2616
     70  O         -0.4050   33.9750   -5.1510 O.2    52  LEU52      -0.2715
     71  CB        -1.9500   36.7100   -6.1140 C.3    52  LEU52       0.0311
     72  CG        -1.1450   36.2030   -7.3260 C.3    52  LEU52       0.0022
     73  CD1       -2.0320   35.8340   -8.5130 C.3    52  LEU52       0.0001
     74  CD2       -0.0320   37.1790   -7.7280 C.3    52  LEU52       0.0001
     75  N          0.5830   35.8600   -4.3660 N.am   53  LYS53      -0.1977
     76  CA         1.9510   35.3370   -4.3360 C.3    53  LYS53       0.1596
     77  C          2.1500   34.2070   -3.3170 C.2    53  LYS53       0.2287
     78  O          3.0440   33.3700   -3.4580 O.2    53  LYS53      -0.2864
     79  CB         2.9320   36.4750   -4.0480 C.3    53  LYS53       0.0298
     80  CG         2.9120   37.5860   -5.0690 C.3    53  LYS53       0.0038
     81  CD         4.1030   38.4930   -4.8880 C.3    53  LYS53       0.0206
     82  CE         4.3000   39.3960   -6.0900 C.3    53  LYS53       0.1093
     83  NZ         5.2660   40.4960   -5.8030 N.3    53  LYS53      -0.1314
     84  N         -0.4170   32.0810   -2.4490 N.3    55  PHE55      -0.1241
     85  CA        -1.1120   30.9650   -3.0930 C.3    55  PHE55       0.1605
     86  C         -0.2430   30.3120   -4.1650 C.2    55  PHE55       0.2264
     87  O         -0.1940   29.0870   -4.2810 O.2    55  PHE55      -0.2867
     88  CB        -2.4230   31.4420   -3.7220 C.3    55  PHE55       0.0534
     89  CG        -3.4940   31.7870   -2.7270 C.ar   55  PHE55      -0.0203
     90  CD1       -3.8540   33.1090   -2.5110 C.ar   55  PHE55      -0.0042
     91  CD2       -4.1560   30.7900   -2.0200 C.ar   55  PHE55      -0.0042
     92  CE1       -4.8500   33.4350   -1.5980 C.ar   55  PHE55      -0.0003
     93  CE2       -5.1510   31.1080   -1.1040 C.ar   55  PHE55      -0.0003
     94  CZ        -5.5000   32.4300   -0.8980 C.ar   55  PHE55      -0.0000
     95  N         -9.8290   40.3350   -8.1040 N.3   125  ASN125     -0.1225
     96  CA        -8.4090   40.6850   -8.2100 C.3   125  ASN125      0.1785
     97  C         -7.4740   39.4750   -8.3030 C.2   125  ASN125      0.2597
     98  O         -6.5060   39.3520   -7.5450 O.2   125  ASN125     -0.2718
     99  CB        -7.9930   41.6520   -7.0930 C.3   125  ASN125      0.1169
    100  CG        -8.8340   41.4980   -5.8480 C.2   125  ASN125      0.2627
    101  OD1       -9.9840   41.9380   -5.8040 O.2   125  ASN125     -0.2716
    102  ND2       -8.2670   40.8730   -4.8260 N.am  125  ASN125     -0.0877
    103  N         -7.7860   38.6000   -9.2560 N.am  126  MET126     -0.1979
    104  CA        -6.9910   37.4200   -9.5830 C.3   126  MET126      0.1605
    105  C         -7.3650   36.9570  -10.9920 C.2   126  MET126      0.2287
    106  O         -8.4000   36.3120  -11.1810 O.2   126  MET126     -0.2864
    107  CB        -7.2380   36.3030   -8.5700 C.3   126  MET126      0.0413
    108  CG        -6.5630   34.9980   -8.9130 C.3   126  MET126      0.0598
    109  SD        -6.9150   33.7210   -7.7010 S.3   126  MET126     -0.1393
    110  CE        -5.7200   34.1190   -6.4200 C.3   126  MET126      0.0692
    111  N        -14.8030   29.7700   -5.6430 N.3   183  ARG183     -0.1231
    112  CA       -13.3670   29.9720   -5.8130 C.3   183  ARG183      0.1694
    113  C        -12.5950   29.6590   -4.5210 C.2   183  ARG183      0.2591
    114  O        -11.3920   29.3880   -4.5630 O.2   183  ARG183     -0.2718
    115  CB       -13.0960   31.4110   -6.2620 C.3   183  ARG183      0.0321
    116  CG       -11.6860   31.6620   -6.7720 C.3   183  ARG183      0.0489
    117  CD       -11.0170   32.8690   -6.1310 C.3   183  ARG183      0.2205
    118  NE       -11.2250   34.1090   -6.8730 N.pl3 183  ARG183     -0.0865
    119  CZ       -11.2110   35.3210   -6.3260 C.cat 183  ARG183      0.5346
    120  NH1      -11.0210   35.4700   -5.0180 N.pl3 183  ARG183      0.1354
    121  NH2      -11.4010   36.3890   -7.0910 N.pl3 183  ARG183      0.1354
    122  N        -13.2970   29.6860   -3.3870 N.am  184  GLU184     -0.1979
    123  CA       -12.6950   29.4180   -2.0770 C.3   184  GLU184      0.1602
    124  C        -12.2570   27.9650   -1.8750 C.2   184  GLU184      0.2287
    125  O        -11.4620   27.6760   -0.9790 O.2   184  GLU184     -0.2864
    126  CB       -13.6340   29.8560   -0.9490 C.3   184  GLU184      0.0415
    127  CG       -13.6230   31.3540   -0.6700 C.3   184  GLU184      0.1163
    128  CD       -12.3260   31.8430   -0.0380 C.2   184  GLU184      0.3649
    129  OE1      -11.6470   31.0510    0.6510 O.co2 184  GLU184     -0.2457
    130  OE2      -11.9850   33.0310   -0.2240 O.co2 184  GLU184     -0.2457
    131  N         -8.8350   28.1320   -3.4340 N.3   187  LEU187     -0.1245
    132  CA        -7.9830   28.9140   -2.5360 C.3   187  LEU187      0.1561
    133  C         -7.6340   28.1990   -1.2300 C.2   187  LEU187      0.2260
    134  O         -6.4840   28.2370   -0.7970 O.2   187  LEU187     -0.2867
    135  CB        -8.5850   30.2930   -2.2510 C.3   187  LEU187      0.0270
    136  CG        -8.6130   31.3180   -3.3930 C.3   187  LEU187      0.0019
    137  CD1       -9.0940   32.6640   -2.8670 C.3   187  LEU187      0.0001
    138  CD2       -7.2550   31.4670   -4.0870 C.3   187  LEU187      0.0001
@<TRIPOS>BOND
     1   106   105    2
     2   105   104    1
     3   104   103    1
     4   104   107    1
     5   103    97   am
     6   108   107    1
     7   108   109    1
     8    73    72    1
     9    97    96    1
    10    97    98    2
    11    96    95    1
    12    96    99    1
    13    74    72    1
    14   109   110    1
    15    72    71    1
    16    99   100    1
    17   121   119    1
    18   118   119    2
    19   118   117    1
    20   116   115    1
    21   116   117    1
    22   119   120    1
    23   115   112    1
    24    71    68    1
    25    82    83    1
    26    82    81    1
    27   100   101    2
    28   100   102   am
    29   112   111    1
    30   112   113    1
    31    70    69    2
    32    80    81    1
    33    80    79    1
    34    68    69    1
    35    68    67    1
    36    69    75   am
    37   114   113    2
    38   113   122   am
    39    75    76    1
    40    76    79    1
    41    76    77    1
    42    87    86    2
    43    86    85    1
    44   138   136    1
    45    88    85    1
    46    88    89    1
    47    67    62   am
    48    78    77    2
    49   131   132    1
    50   136   137    1
    51   136   135    1
    52   122   123    1
    53     1     2    1
    54     4     3    2
    55    85    84    1
    56    89    90   ar
    57    89    91   ar
    58     7     5    1
    59   132   135    1
    60   132   133    1
    61    90    92   ar
    62    62    63    2
    63    62    61    1
    64     3     2    1
    65     3     8   am
    66     2     5    1
    67   123   124    1
    68   123   126    1
    69    91    93   ar
    70   124   125    2
    71     5     6    1
    72    92    94   ar
    73    13    12    1
    74    64    61    1
    75    64    65    1
    76    64    66    1
    77    61    60    1
    78    12     9    1
    79   133   134    2
    80    93    94   ar
    81     8     9    1
    82     9    10    1
    83   126   127    1
    84    37    34    1
    85    37    38    1
    86   127   128    1
    87    34    33    1
    88    34    35    1
    89    38    39    1
    90    36    35    2
    91   130   128   ar
    92    39    33    1
    93    52    51    2
    94   128   129   ar
    95    60    51   am
    96    33    28   am
    97    14    10   am
    98    14    15    1
    99    10    11    2
   100    51    50    1
   101    29    28    2
   102    28    27    1
   103    59    57    1
   104    21    20    2
   105    15    16    1
   106    18    19    1
   107    18    16   am
   108    24    23    1
   109    22    23    1
   110    22    19    1
   111    27    26    1
   112    27    30    1
   113    20    19    1
   114    20    26   am
   115    57    58    1
   116    57    56    2
   117    23    25    1
   118    50    53    1
   119    50    49    1
   120    16    17    2
   121    54    53    1
   122    54    55    1
   123    56    55    1
   124    30    32    1
   125    30    31    1
   126    49    42   am
   127    43    42    2
   128    42    41    1
   129    44    41    1
   130    44    45    1
   131    41    40    1
   132    48    46   ar
   133    45    46    1
   134    46    47   ar
