@<TRIPOS>MOLECULE
tmp/3cowB00.pdb
 224 216 0 0 0
SMALL
GASTEIGER

@<TRIPOS>ATOM
      1  N         -3.0540   -6.9320   29.7310 N.3    37  PRO37      -0.2102
      2  CA        -2.2260   -8.0400   29.2360 C.3    37  PRO37       0.1504
      3  C         -1.9690   -9.1050   30.2880 C.2    37  PRO37       0.2576
      4  O         -1.5490   -8.7760   31.4040 O.2    37  PRO37      -0.2718
      5  CB        -0.9070   -7.3560   28.8290 C.3    37  PRO37       0.0282
      6  CG        -1.2560   -5.9040   28.6220 C.3    37  PRO37       0.0208
      7  CD        -2.3250   -5.6480   29.7130 C.3    37  PRO37       0.0893
      8  N         -2.2170  -10.3710   29.9270 N.am   38  THR38      -0.1939
      9  CA        -1.9540  -11.4710   30.8360 C.3    38  THR38       0.2028
     10  C         -1.3950  -12.6840   30.0740 C.2    38  THR38       0.2642
     11  O         -1.4200  -12.7570   28.8480 O.2    38  THR38      -0.2714
     12  CB        -3.2480  -11.9630   31.6190 C.3    38  THR38       0.1808
     13  OG1       -3.9810  -12.8930   30.8090 O.3    38  THR38      -0.2208
     14  CG2       -4.1830  -10.7950   32.0670 C.3    38  THR38       0.0379
     15  N         -0.9450  -13.6470   30.8440 N.am   39  MET39      -0.1962
     16  CA        -0.5460  -14.9220   30.2550 C.3    39  MET39       0.1736
     17  C         -1.4980  -16.0320   30.6690 C.2    39  MET39       0.2617
     18  O         -1.1540  -17.2280   30.5930 O.2    39  MET39      -0.2715
     19  CB         0.8750  -15.2570   30.6750 C.3    39  MET39       0.0427
     20  CG         1.8700  -14.2140   30.2520 C.3    39  MET39       0.0599
     21  SD         3.5710  -14.8270   30.2110 S.3    39  MET39      -0.1393
     22  CE         3.9230  -14.9960   31.9470 C.3    39  MET39       0.0692
     23  N         -2.7110  -15.6600   31.0520 N.am   40  GLY40      -0.1955
     24  CA        -3.7030  -16.6410   31.5140 C.3    40  GLY40       0.1869
     25  C         -3.4000  -17.2390   32.8750 C.2    40  GLY40       0.2309
     26  O         -2.6220  -16.6660   33.6540 O.2    40  GLY40      -0.2863
     27  N         -5.7060  -15.4610   38.4010 N.3    43  HIS43      -0.1241
     28  CA        -6.0750  -15.4420   39.7950 C.3    43  HIS43       0.1621
     29  C         -6.4810  -14.0350   40.2280 C.2    43  HIS43       0.2264
     30  O         -6.5510  -13.0800   39.4060 O.2    43  HIS43      -0.2867
     31  CB        -4.9470  -16.0350   40.6700 C.3    43  HIS43       0.0745
     32  CG        -3.6250  -15.3540   40.4900 C.ar   43  HIS43       0.0817
     33  ND1       -3.4400  -14.0180   40.7760 N.ar   43  HIS43      -0.2268
     34  CD2       -2.4270  -15.8200   40.0560 C.ar   43  HIS43       0.1154
     35  CE1       -2.1910  -13.6780   40.5000 C.ar   43  HIS43       0.1986
     36  NE2       -1.5490  -14.7570   40.0780 N.ar   43  HIS43      -0.2212
     37  N         -5.0750  -11.6710   41.6360 N.3    45  GLY45      -0.1210
     38  CA        -4.1200  -10.5890   41.2950 C.3    45  GLY45       0.1956
     39  C         -4.4210  -10.0280   39.9080 C.2    45  GLY45       0.2611
     40  O         -4.5920   -8.8170   39.7400 O.2    45  GLY45      -0.2717
     41  N         -4.5430  -10.9150   38.9300 N.am   46  HIS46      -0.1975
     42  CA        -4.9500  -10.5100   37.5810 C.3    46  HIS46       0.1656
     43  C         -6.3140   -9.8570   37.5390 C.2    46  HIS46       0.2291
     44  O         -6.4980   -8.8930   36.8090 O.2    46  HIS46      -0.2864
     45  CB        -4.9810  -11.6780   36.6150 C.3    46  HIS46       0.0771
     46  CG        -3.7430  -12.5150   36.6370 C.ar   46  HIS46       0.0820
     47  ND1       -3.7200  -13.7860   37.1760 N.ar   46  HIS46      -0.2267
     48  CD2       -2.4900  -12.2720   36.1830 C.ar   46  HIS46       0.1154
     49  CE1       -2.5090  -14.3010   37.0330 C.ar   46  HIS46       0.1986
     50  NE2       -1.7420  -13.3990   36.4410 N.ar   46  HIS46      -0.2212
     51  N         -6.6320   -6.0970   38.1940 N.3    49  LEU49      -0.1245
     52  CA        -6.4130   -5.2630   36.9960 C.3    49  LEU49       0.1561
     53  C         -7.6850   -5.1590   36.1770 C.2    49  LEU49       0.2260
     54  O         -8.0350   -4.0750   35.7080 O.2    49  LEU49      -0.2867
     55  CB        -5.3010   -5.8260   36.1150 C.3    49  LEU49       0.0270
     56  CG        -3.8380   -5.5370   36.5120 C.3    49  LEU49       0.0019
     57  CD1       -3.4440   -6.0350   37.9080 C.3    49  LEU49       0.0001
     58  CD2       -2.9260   -6.1520   35.4370 C.3    49  LEU49       0.0001
     59  N         -1.8640  -14.6200   26.4010 N.3    66  PHE66      -0.1241
     60  CA        -0.8430  -15.0120   25.4510 C.3    66  PHE66       0.1605
     61  C          0.4390  -15.2750   26.1990 C.2    66  PHE66       0.2264
     62  O          0.9680  -14.4290   26.9040 O.2    66  PHE66      -0.2867
     63  CB        -0.6150  -13.9430   24.3590 C.3    66  PHE66       0.0534
     64  CG         0.4900  -14.3030   23.4000 C.ar   66  PHE66      -0.0203
     65  CD1        0.3510  -15.4150   22.5580 C.ar   66  PHE66      -0.0042
     66  CD2        1.6530  -13.5420   23.3340 C.ar   66  PHE66      -0.0042
     67  CE1        1.3800  -15.7620   21.6540 C.ar   66  PHE66      -0.0003
     68  CE2        2.7210  -13.8720   22.4350 C.ar   66  PHE66      -0.0003
     69  CZ         2.5740  -15.0050   21.5900 C.ar   66  PHE66      -0.0000
     70  N          4.1160  -15.5290   25.9230 N.3    68  ASN68      -0.1240
     71  CA         5.0930  -14.9900   24.9970 C.3    68  ASN68       0.1653
     72  C          6.3400  -15.8500   25.0640 C.2    68  ASN68       0.2266
     73  O          6.9850  -15.8920   26.1180 O.2    68  ASN68      -0.2867
     74  CB         5.4130  -13.5350   25.3760 C.3    68  ASN68       0.1155
     75  CG         6.3580  -12.8710   24.3940 C.2    68  ASN68       0.2627
     76  OD1        6.1860  -12.9910   23.1840 O.2    68  ASN68      -0.2716
     77  ND2        7.3500  -12.1520   24.9060 N.am   68  ASN68      -0.0877
     78  N          9.8360  -13.9470   26.0620 N.3    71  GLN71      -0.1245
     79  CA        10.2090  -13.6010   27.4490 C.3    71  GLN71       0.1566
     80  C         10.4160  -14.8300   28.3430 C.2    71  GLN71       0.2260
     81  O         10.9060  -14.7090   29.4750 O.2    71  GLN71      -0.2867
     82  CB         9.1810  -12.6680   28.0830 C.3    71  GLN71       0.0367
     83  CG         7.9350  -13.3840   28.6650 C.3    71  GLN71       0.0905
     84  CD         6.8010  -12.4030   28.9520 C.2    71  GLN71       0.2608
     85  OE1        6.3460  -11.7090   28.0470 O.2    71  GLN71      -0.2717
     86  NE2        6.3650  -12.3210   30.2240 N.am   71  GLN71      -0.0878
     87  N          4.4480  -23.4500   31.4130 N.3    73  TYR73      -0.1241
     88  CA         3.6000  -22.4910   32.1220 C.3    73  TYR73       0.1605
     89  C          2.1560  -23.0260   32.2210 C.2    73  TYR73       0.2264
     90  O          1.6610  -23.6270   31.2610 O.2    73  TYR73      -0.2867
     91  CB         3.6370  -21.1410   31.3820 C.3    73  TYR73       0.0534
     92  CG         3.0750  -19.9770   32.1670 C.ar   73  TYR73      -0.0201
     93  CD1        3.8830  -19.2440   33.0360 C.ar   73  TYR73      -0.0009
     94  CD2        1.7320  -19.6110   32.0440 C.ar   73  TYR73      -0.0009
     95  CE1        3.3670  -18.1770   33.7710 C.ar   73  TYR73       0.0417
     96  CE2        1.2040  -18.5490   32.7730 C.ar   73  TYR73       0.0417
     97  CZ         2.0260  -17.8340   33.6340 C.ar   73  TYR73       0.1957
     98  OH         1.5080  -16.7780   34.3530 O.3    73  TYR73      -0.2866
     99  N         14.7760  -11.1960   29.2280 N.3   126  HIS126     -0.1241
    100  CA        13.3710  -11.2860   29.6180 C.3   126  HIS126      0.1621
    101  C         12.5890  -10.0100   29.2290 C.2   126  HIS126      0.2264
    102  O         11.5280  -10.0830   28.6210 O.2   126  HIS126     -0.2867
    103  CB        13.2560  -11.4660   31.1210 C.3   126  HIS126      0.0745
    104  CG        11.8430  -11.3720   31.6210 C.ar  126  HIS126      0.0817
    105  ND1       10.8590  -12.2640   31.2580 N.ar  126  HIS126     -0.2268
    106  CD2       11.2500  -10.4760   32.4490 C.ar  126  HIS126      0.1154
    107  CE1        9.7180  -11.9230   31.8370 C.ar  126  HIS126      0.1986
    108  NE2        9.9330  -10.8460   32.5730 N.ar  126  HIS126     -0.2212
    109  N          9.2450   -8.9690   26.9580 N.3   130  VAL130     -0.1245
    110  CA         8.0940   -8.2550   27.5030 C.3   130  VAL130      0.1561
    111  C          7.7600   -6.9890   26.7020 C.2   130  VAL130      0.2260
    112  O          6.6190   -6.8040   26.2800 O.2   130  VAL130     -0.2867
    113  CB         8.2970   -7.8830   28.9980 C.3   130  VAL130      0.0252
    114  CG1        7.0860   -7.0070   29.5170 C.3   130  VAL130      0.0019
    115  CG2        8.4400   -9.1830   29.8270 C.3   130  VAL130      0.0019
    116  N          6.4010   -7.7480   23.1290 N.3   133  VAL133     -0.1231
    117  CA         5.0060   -8.2300   23.0610 C.3   133  VAL133      0.1692
    118  C          4.0140   -7.1620   23.5190 C.2   133  VAL133      0.2591
    119  O          2.9420   -7.0290   22.9410 O.2   133  VAL133     -0.2718
    120  CB         4.8010   -9.5800   23.7790 C.3   133  VAL133      0.0266
    121  CG1        4.6980   -9.3770   25.3110 C.3   133  VAL133      0.0020
    122  CG2        3.5240  -10.2760   23.2270 C.3   133  VAL133      0.0020
    123  N          4.3960   -6.3470   24.4980 N.am  134  VAL134     -0.1980
    124  CA         3.4770   -5.2830   24.9570 C.3   134  VAL134      0.1595
    125  C          3.3220   -4.2370   23.8660 C.2   134  VAL134      0.2287
    126  O          2.2240   -3.7850   23.6320 O.2   134  VAL134     -0.2864
    127  CB         3.8890   -4.6820   26.3120 C.3   134  VAL134      0.0276
    128  CG1        3.0730   -3.3920   26.6140 C.3   134  VAL134      0.0022
    129  CG2        3.6770   -5.7660   27.4250 C.3   134  VAL134      0.0022
    130  N          0.8920   -5.6790   21.3500 N.3   137  LEU137     -0.1245
    131  CA        -0.4820   -5.6700   21.8840 C.3   137  LEU137      0.1561
    132  C         -1.0550   -4.2800   21.8620 C.2   137  LEU137      0.2260
    133  O         -2.2330   -4.1240   21.5100 O.2   137  LEU137     -0.2867
    134  CB        -0.5410   -6.2140   23.3020 C.3   137  LEU137      0.0270
    135  CG        -0.3050   -7.7190   23.4060 C.3   137  LEU137      0.0019
    136  CD1       -0.0910   -8.0080   24.9020 C.3   137  LEU137      0.0001
    137  CD2       -1.4600   -8.5530   22.8100 C.3   137  LEU137      0.0001
    138  N         -3.1710   -1.6780   31.6770 N.3   147  PHE147     -0.1227
    139  CA        -3.0990   -1.9530   33.1100 C.3   147  PHE147      0.1736
    140  C         -2.0340   -2.9820   33.4210 C.2   147  PHE147      0.2595
    141  O         -1.9560   -4.0420   32.7630 O.2   147  PHE147     -0.2718
    142  CB        -4.4700   -2.4590   33.6250 C.3   147  PHE147      0.0547
    143  CG        -5.5210   -1.3900   33.5660 C.ar  147  PHE147     -0.0202
    144  CD1       -6.0710   -1.0270   32.3350 C.ar  147  PHE147     -0.0042
    145  CD2       -5.8460   -0.6700   34.7080 C.ar  147  PHE147     -0.0042
    146  CE1       -7.0300    0.0230   32.2590 C.ar  147  PHE147     -0.0003
    147  CE2       -6.7820    0.3820   34.6490 C.ar  147  PHE147     -0.0003
    148  CZ        -7.3520    0.7380   33.4120 C.ar  147  PHE147     -0.0000
    149  N         -1.2190   -2.6540   34.4170 N.am  148  PHE148     -0.1962
    150  CA        -0.1340   -3.5580   34.8650 C.3   148  PHE148      0.1771
    151  C         -0.0600   -3.6170   36.3830 C.2   148  PHE148      0.2620
    152  O         -0.3040   -2.6080   37.0650 O.2   148  PHE148     -0.2715
    153  CB         1.2320   -3.0490   34.3380 C.3   148  PHE148      0.0574
    154  CG         1.4190   -3.2400   32.8790 C.ar  148  PHE148     -0.0200
    155  CD1        1.8980   -4.4660   32.3830 C.ar  148  PHE148     -0.0042
    156  CD2        1.1110   -2.2190   31.9880 C.ar  148  PHE148     -0.0042
    157  CE1        2.0340   -4.6640   31.0080 C.ar  148  PHE148     -0.0003
    158  CE2        1.2720   -2.3860   30.6090 C.ar  148  PHE148     -0.0003
    159  CZ         1.7180   -3.6290   30.1020 C.ar  148  PHE148     -0.0000
    160  N          0.3010   -4.7750   36.9440 N.am  149  GLY149     -0.1954
    161  CA         0.3520   -4.8530   38.4080 C.3   149  GLY149      0.1869
    162  C          1.6310   -4.3290   39.0010 C.2   149  GLY149      0.2309
    163  O          2.7160   -4.5330   38.4330 O.2   149  GLY149     -0.2863
    164  N          2.9440   -5.6820   41.3880 N.3   151  LYS151     -0.1231
    165  CA         3.6110   -6.9830   41.6540 C.3   151  LYS151      0.1693
    166  C          4.9310   -7.0760   40.8580 C.2   151  LYS151      0.2592
    167  O          6.0050   -7.3320   41.4310 O.2   151  LYS151     -0.2718
    168  CB         2.6720   -8.1290   41.2300 C.3   151  LYS151      0.0285
    169  CG         3.2690   -9.5770   41.2970 C.3   151  LYS151      0.0035
    170  CD         3.2640  -10.1090   42.7410 C.3   151  LYS151      0.0206
    171  CE         3.9500  -11.4860   42.8460 C.3   151  LYS151      0.1093
    172  NZ         5.4150  -11.4470   42.5620 N.3   151  LYS151     -0.1314
    173  N          4.8390   -6.8050   39.5580 N.am  152  ASP152     -0.1974
    174  CA         6.0290   -6.7800   38.6960 C.3   152  ASP152      0.1709
    175  C          6.4430   -5.3330   38.4890 C.2   152  ASP152      0.2293
    176  O          6.2160   -4.7180   37.4230 O.2   152  ASP152     -0.2864
    177  CB         5.6730   -7.5010   37.4170 C.3   152  ASP152      0.1436
    178  CG         5.2550   -8.9380   37.7140 C.2   152  ASP152      0.3671
    179  OD1        6.1570   -9.7590   37.9780 O.co2 152  ASP152     -0.2456
    180  OD2        4.0310   -9.2000   37.7490 O.co2 152  ASP152     -0.2456
    181  N          8.9130   -4.4760   35.6620 N.3   155  GLN155     -0.1245
    182  CA         8.1400   -4.5220   34.4100 C.3   155  GLN155      0.1566
    183  C          7.3290   -3.2430   34.1820 C.2   155  GLN155      0.2260
    184  O          7.3570   -2.6440   33.0830 O.2   155  GLN155     -0.2867
    185  CB         7.2010   -5.7260   34.4240 C.3   155  GLN155      0.0367
    186  CG         6.2140   -5.7540   33.2500 C.3   155  GLN155      0.0905
    187  CD         5.4750   -7.0810   33.2130 C.2   155  GLN155      0.2608
    188  OE1        5.9600   -8.0390   32.6020 O.2   155  GLN155     -0.2717
    189  NE2        4.3550   -7.1760   33.9420 N.am  155  GLN155     -0.0878
    190  N         -2.3010   -1.8150   42.4720 N.3   176  PRO176     -0.2102
    191  CA        -1.6290   -2.3670   43.6670 C.3   176  PRO176      0.1504
    192  C         -1.6490   -3.9000   43.7490 C.2   176  PRO176      0.2576
    193  O         -2.5550   -4.5690   43.2340 O.2   176  PRO176     -0.2718
    194  CB        -2.4050   -1.7590   44.8490 C.3   176  PRO176      0.0282
    195  CG        -3.0800   -0.5180   44.2730 C.3   176  PRO176      0.0208
    196  CD        -3.3750   -0.8600   42.8230 C.3   176  PRO176      0.0893
    197  N         -0.5920   -4.4200   44.3550 N.am  177  THR177     -0.1939
    198  CA        -0.3900   -5.8480   44.5060 C.3   177  THR177      0.2028
    199  C         -1.4820   -6.4540   45.3790 C.2   177  THR177      0.2642
    200  O         -1.8000   -5.9480   46.4730 O.2   177  THR177     -0.2714
    201  CB         1.0100   -6.1250   45.0870 C.3   177  THR177      0.1808
    202  OG1        1.9820   -5.7360   44.1060 O.3   177  THR177     -0.2208
    203  CG2        1.2250   -7.6210   45.3890 C.3   177  THR177      0.0379
    204  N         -2.0510   -7.5460   44.8800 N.am  178  VAL178     -0.1977
    205  CA        -3.0320   -8.3280   45.6380 C.3   178  VAL178      0.1596
    206  C         -2.2470   -9.3650   46.4370 C.2   178  VAL178      0.2287
    207  O         -1.3470  -10.0160   45.8880 O.2   178  VAL178     -0.2864
    208  CB        -4.0380   -8.9900   44.6900 C.3   178  VAL178      0.0276
    209  CG1       -5.0490   -9.8550   45.4590 C.3   178  VAL178      0.0022
    210  CG2       -4.7860   -7.9120   43.8720 C.3   178  VAL178      0.0022
    211  N          0.2320  -12.4700   45.7290 N.3   186  MET186     -0.1230
    212  CA        -0.3650  -13.5970   44.9900 C.3   186  MET186      0.1702
    213  C          0.3950  -13.9170   43.7080 C.2   186  MET186      0.2593
    214  O          0.8040  -13.0120   42.9540 O.2   186  MET186     -0.2718
    215  CB        -1.8240  -13.3330   44.6510 C.3   186  MET186      0.0401
    216  CG        -2.7420  -13.2380   45.8460 C.3   186  MET186      0.0596
    217  SD        -4.4120  -13.4500   45.1990 S.3   186  MET186     -0.1393
    218  CE        -5.3650  -13.5810   46.7080 C.3   186  MET186      0.0692
    219  N          0.5690  -15.2120   43.4690 N.am  187  SER187     -0.1952
    220  CA         1.3100  -15.6790   42.3300 C.3   187  SER187      0.1924
    221  C          0.9130  -17.1360   42.1150 C.2   187  SER187      0.2314
    222  O          0.6680  -17.8880   43.0870 O.2   187  SER187     -0.2863
    223  CB         2.8220  -15.5960   42.6210 C.3   187  SER187      0.2116
    224  OG         3.5860  -16.2870   41.6450 O.3   187  SER187     -0.2180
@<TRIPOS>BOND
     1   130   131    1
     2   133   132    2
     3    69    67   ar
     4    69    68   ar
     5    67    65   ar
     6   132   131    1
     7   131   134    1
     8    68    66   ar
     9    65    64   ar
    10   137   135    1
    11   119   118    2
    12   117   116    1
    13   117   118    1
    14   117   120    1
    15    76    75    2
    16   122   120    1
    17   134   135    1
    18    66    64   ar
    19    64    63    1
    20   135   136    1
    21   118   123   am
    22   126   125    2
    23   120   121    1
    24   125   124    1
    25    63    60    1
    26    75    77   am
    27    75    74    1
    28   123   124    1
    29   124   127    1
    30    71    72    1
    31    71    74    1
    32    71    70    1
    33    72    73    2
    34    60    61    1
    35    60    59    1
    36    78    79    1
    37    61    62    2
    38   112   111    2
    39   127   128    1
    40   127   129    1
    41   111   110    1
    42   109   110    1
    43    79    82    1
    44    79    80    1
    45   110   113    1
    46    85    84    2
    47    82    83    1
    48    80    81    2
    49   102   101    2
    50     6     5    1
    51     6     7    1
    52    83    84    1
    53     5     2    1
    54    11    10    2
    55    84    86   am
    56   113   114    1
    57   113   115    1
    58    99   100    1
    59   101   100    1
    60     2     1    1
    61     2     3    1
    62   100   103    1
    63     7     1    1
    64     8     3   am
    65     8     9    1
    66    10     9    1
    67    10    15   am
    68   159   158   ar
    69   159   157   ar
    70    21    20    1
    71    21    22    1
    72    20    19    1
    73    16    17    1
    74    16    19    1
    75    16    15    1
    76     3     4    2
    77    18    17    2
    78   158   156   ar
    79    17    23   am
    80    13    12    1
    81     9    12    1
    82   157   155   ar
    83    23    24    1
    84   103   104    1
    85   105   104   ar
    86   105   107   ar
    87    90    89    2
    88    91    88    1
    89    91    92    1
    90    87    88    1
    91    24    25    1
    92    12    14    1
    93   104   106   ar
    94   138   139    1
    95   107   108   ar
    96   156   154   ar
    97    94    92   ar
    98    94    96   ar
    99    88    89    1
   100    92    93   ar
   101   146   144   ar
   102   146   148   ar
   103   144   143   ar
   104   155   154   ar
   105   106   108   ar
   106   188   187    2
   107   141   140    2
   108    96    97   ar
   109    25    26    2
   110   154   153    1
   111    93    95   ar
   112   184   183    2
   113   139   140    1
   114   139   142    1
   115   187   186    1
   116   187   189   am
   117   186   185    1
   118   148   147   ar
   119   140   149   am
   120   143   142    1
   121   143   145   ar
   122    97    95   ar
   123    97    98    1
   124   183   182    1
   125   153   150    1
   126   182   185    1
   127   182   181    1
   128   149   150    1
   129   147   145   ar
   130   150   151    1
   131    58    56    1
   132    54    53    2
   133    55    56    1
   134    55    52    1
   135    53    52    1
   136    48    50   ar
   137    48    46   ar
   138   151   160   am
   139   151   152    2
   140    50    49   ar
   141    56    57    1
   142    45    46    1
   143    45    42    1
   144    46    47   ar
   145    44    43    2
   146   160   161    1
   147    52    51    1
   148    49    47   ar
   149   177   178    1
   150   177   174    1
   151   176   175    2
   152    43    42    1
   153    42    41    1
   154   178   180   ar
   155   178   179   ar
   156    27    28    1
   157   161   162    1
   158   163   162    2
   159   175   174    1
   160   174   173    1
   161    41    39   am
   162    30    29    2
   163   173   166   am
   164    40    39    2
   165    28    29    1
   166    28    31    1
   167    39    38    1
   168    34    36   ar
   169    34    32   ar
   170    36    35   ar
   171    32    31    1
   172    32    33   ar
   173    35    33   ar
   174   166   167    2
   175   166   165    1
   176   168   169    1
   177   168   165    1
   178    38    37    1
   179   169   170    1
   180   164   165    1
   181   224   223    1
   182   221   220    1
   183   221   222    2
   184   220   223    1
   185   220   219    1
   186   190   196    1
   187   190   191    1
   188   172   171    1
   189   170   171    1
   190   196   195    1
   191   214   213    2
   192   193   192    2
   193   219   213   am
   194   191   192    1
   195   191   194    1
   196   213   212    1
   197   192   197   am
   198   210   208    1
   199   202   201    1
   200   195   194    1
   201   197   198    1
   202   198   201    1
   203   198   199    1
   204   215   212    1
   205   215   216    1
   206   208   209    1
   207   208   205    1
   208   204   199   am
   209   204   205    1
   210   212   211    1
   211   201   203    1
   212   217   216    1
   213   217   218    1
   214   199   200    2
   215   205   206    1
   216   207   206    2
