@<TRIPOS>MOLECULE
tmp/3cp9A00.pdb
 192 180 0 0 0
SMALL
GASTEIGER

@<TRIPOS>ATOM
      1  N         15.2990   25.0000   24.8950 N.3    24  LEU24      -0.1245
      2  CA        13.9700   25.4210   25.3410 C.3    24  LEU24       0.1561
      3  C         13.4290   26.5590   24.4820 C.2    24  LEU24       0.2260
      4  O         14.1100   27.0420   23.5790 O.2    24  LEU24      -0.2867
      5  CB        14.0020   25.8620   26.8140 C.3    24  LEU24       0.0270
      6  CG        14.3130   24.7900   27.8680 C.3    24  LEU24       0.0019
      7  CD1       14.2260   25.3980   29.2630 C.3    24  LEU24       0.0001
      8  CD2       13.3340   23.6160   27.7250 C.3    24  LEU24       0.0001
      9  N         18.7450   29.0630   25.0090 N.3    26  VAL26      -0.1245
     10  CA        18.3700   28.7530   26.3790 C.3    26  VAL26       0.1561
     11  C         18.2560   27.2380   26.4550 C.2    26  VAL26       0.2260
     12  O         17.4840   26.6300   25.7130 O.2    26  VAL26      -0.2867
     13  CB        17.0200   29.3900   26.7370 C.3    26  VAL26       0.0252
     14  CG1       16.7840   29.2940   28.2300 C.3    26  VAL26       0.0019
     15  CG2       17.0000   30.8330   26.2860 C.3    26  VAL26       0.0019
     16  N         17.9070   26.0040   34.1640 N.3    44  ALA44      -0.1231
     17  CA        17.8850   26.5220   32.8010 C.3    44  ALA44       0.1694
     18  C         19.1340   27.3570   32.6120 C.2    44  ALA44       0.2592
     19  O         19.5870   28.0410   33.5330 O.2    44  ALA44      -0.2718
     20  CB        16.6460   27.3770   32.5640 C.3    44  ALA44       0.0304
     21  N         19.6850   27.3140   31.4110 N.am   45  VAL45      -0.1966
     22  CA        20.9040   28.0500   31.1420 C.3    45  VAL45       0.1727
     23  C         20.8230   28.8610   29.8680 C.2    45  VAL45       0.2616
     24  O         20.3960   28.3640   28.8290 O.2    45  VAL45      -0.2715
     25  CB        22.1170   27.0890   31.0090 C.3    45  VAL45       0.0290
     26  CG1       23.3830   27.8840   30.7670 C.3    45  VAL45       0.0023
     27  CG2       22.2520   26.2350   32.2540 C.3    45  VAL45       0.0023
     28  N         21.2190   30.1220   29.9570 N.am   46  LYS46      -0.1977
     29  CA        21.2500   30.9660   28.7800 C.3    46  LYS46       0.1596
     30  C         22.7420   31.1700   28.5440 C.2    46  LYS46       0.2287
     31  O         23.4640   31.6080   29.4430 O.2    46  LYS46      -0.2864
     32  CB        20.5500   32.3050   29.0340 C.3    46  LYS46       0.0298
     33  CG        20.4210   33.1570   27.7760 C.3    46  LYS46       0.0038
     34  CD        19.8020   34.5200   28.0480 C.3    46  LYS46       0.0206
     35  CE        18.3300   34.4150   28.4040 C.3    46  LYS46       0.1093
     36  NZ        17.7170   35.7700   28.5060 N.3    46  LYS46      -0.1314
     37  N         22.7890   41.4180   31.5880 N.3    63  GLU63      -0.1245
     38  CA        21.5380   40.7990   32.0030 C.3    63  GLU63       0.1567
     39  C         21.8310   40.1130   33.3350 C.2    63  GLU63       0.2260
     40  O         21.0480   40.2160   34.2910 O.2    63  GLU63      -0.2867
     41  CB        21.0850   39.7750   30.9620 C.3    63  GLU63       0.0388
     42  CG        19.7220   39.1600   31.2210 C.3    63  GLU63       0.1160
     43  CD        19.3200   38.1970   30.1180 C.2    63  GLU63       0.3649
     44  OE1       19.3100   38.6200   28.9360 O.co2  63  GLU63      -0.2457
     45  OE2       19.0200   37.0200   30.4270 O.co2  63  GLU63      -0.2457
     46  N         22.0350   42.5880   36.1410 N.3    66  ILE66      -0.1231
     47  CA        20.7110   43.0930   36.4880 C.3    66  ILE66       0.1692
     48  C         19.9710   42.0590   37.3200 C.2    66  ILE66       0.2591
     49  O         19.2510   42.4010   38.2580 O.2    66  ILE66      -0.2718
     50  CB        19.8610   43.4050   35.2380 C.3    66  ILE66       0.0266
     51  CG1       20.4210   44.6200   34.5050 C.3    66  ILE66       0.0019
     52  CG2       18.4280   43.7110   35.6430 C.3    66  ILE66       0.0020
     53  CD1       19.4440   45.1860   33.4990 C.3    66  ILE66       0.0001
     54  N         20.1400   40.7880   36.9840 N.am   67  LEU67      -0.1980
     55  CA        19.4710   39.7440   37.7480 C.3    67  LEU67       0.1596
     56  C         19.9800   39.7440   39.1890 C.2    67  LEU67       0.2287
     57  O         19.2070   39.5750   40.1320 O.2    67  LEU67      -0.2864
     58  CB        19.7030   38.3800   37.0910 C.3    67  LEU67       0.0297
     59  CG        18.9810   38.2340   35.7500 C.3    67  LEU67       0.0022
     60  CD1       19.3760   36.9390   35.0830 C.3    67  LEU67       0.0001
     61  CD2       17.4820   38.2840   35.9850 C.3    67  LEU67       0.0001
     62  N         18.6470   43.2020   40.9450 N.3    70  ILE70      -0.1245
     63  CA        17.2230   43.1460   41.2680 C.3    70  ILE70       0.1561
     64  C         16.8980   42.3280   42.5080 C.2    70  ILE70       0.2260
     65  O         16.1550   42.7700   43.3800 O.2    70  ILE70      -0.2867
     66  CB        16.4180   42.5460   40.1170 C.3    70  ILE70       0.0252
     67  CG1       16.4900   43.4540   38.9000 C.3    70  ILE70       0.0019
     68  CG2       14.9890   42.3530   40.5460 C.3    70  ILE70       0.0019
     69  CD1       15.7970   42.8630   37.7080 C.3    70  ILE70       0.0001
     70  N          9.3630   35.8820   39.6790 N.3    76  VAL76      -0.1231
     71  CA        10.3350   36.2010   38.6350 C.3    76  VAL76       0.1692
     72  C         11.3250   35.0500   38.5810 C.2    76  VAL76       0.2591
     73  O         11.7280   34.5410   39.6180 O.2    76  VAL76      -0.2718
     74  CB        11.0890   37.5080   38.9420 C.3    76  VAL76       0.0266
     75  CG1       12.2170   37.6910   37.9670 C.3    76  VAL76       0.0020
     76  CG2       10.1380   38.6920   38.8510 C.3    76  VAL76       0.0020
     77  N         11.6960   34.6040   37.3880 N.am   77  VAL77      -0.1980
     78  CA        12.6570   33.5150   37.3030 C.3    77  VAL77       0.1595
     79  C         13.8670   33.9440   38.1230 C.2    77  VAL77       0.2287
     80  O         14.4690   34.9840   37.8540 O.2    77  VAL77      -0.2864
     81  CB        13.0930   33.2530   35.8570 C.3    77  VAL77       0.0276
     82  CG1       14.2860   32.3010   35.8470 C.3    77  VAL77       0.0022
     83  CG2       11.9380   32.6620   35.0750 C.3    77  VAL77       0.0022
     84  N         24.5230   31.8400   32.1200 N.3    92  VAL92      -0.1245
     85  CA        23.6710   32.3790   33.1780 C.3    92  VAL92       0.1561
     86  C         22.6890   31.2760   33.5630 C.2    92  VAL92       0.2260
     87  O         21.9210   30.7990   32.7280 O.2    92  VAL92      -0.2867
     88  CB        22.9140   33.6220   32.6870 C.3    92  VAL92       0.0252
     89  CG1       22.1140   34.2340   33.8310 C.3    92  VAL92       0.0019
     90  CG2       23.9070   34.6320   32.1140 C.3    92  VAL92       0.0019
     91  N         19.5450   29.7080   35.9570 N.3    94  THR94      -0.1203
     92  CA        18.3640   30.0520   36.7410 C.3    94  THR94       0.1994
     93  C         17.5380   28.8200   37.0740 C.2    94  THR94       0.2618
     94  O         17.8440   27.7080   36.6390 O.2    94  THR94      -0.2717
     95  CB        17.4410   30.9970   35.9650 C.3    94  THR94       0.1784
     96  OG1       16.7390   30.2510   34.9630 O.3    94  THR94      -0.2211
     97  CG2       18.2480   32.0960   35.2870 C.3    94  THR94       0.0376
     98  N         16.4710   29.0250   37.8340 N.am   95  GLU95      -0.1965
     99  CA        15.6080   27.9140   38.1780 C.3    95  GLU95       0.1733
    100  C         14.9160   27.4580   36.8970 C.2    95  GLU95       0.2616
    101  O         14.8860   28.1810   35.9010 O.2    95  GLU95      -0.2715
    102  CB        14.5840   28.3220   39.2450 C.3    95  GLU95       0.0429
    103  CG        13.7230   29.5340   38.9110 C.3    95  GLU95       0.1163
    104  CD        12.7010   29.8440   40.0110 C.2    95  GLU95       0.3649
    105  OE1       11.8740   28.9610   40.3340 O.co2  95  GLU95      -0.2457
    106  OE2       12.7220   30.9660   40.5560 O.co2  95  GLU95      -0.2457
    107  N         14.3940   26.2430   36.9250 N.am   96  PHE96      -0.1960
    108  CA        13.7150   25.6640   35.7800 C.3    96  PHE96       0.1771
    109  C         12.2150   25.5920   36.0520 C.2    96  PHE96       0.2619
    110  O         11.7940   25.2560   37.1600 O.2    96  PHE96      -0.2715
    111  CB        14.2550   24.2530   35.5370 C.3    96  PHE96       0.0574
    112  CG        13.5840   23.5270   34.4160 C.ar   96  PHE96      -0.0200
    113  CD1       13.6740   23.9960   33.1130 C.ar   96  PHE96      -0.0042
    114  CD2       12.8860   22.3560   34.6540 C.ar   96  PHE96      -0.0042
    115  CE1       13.0800   23.3100   32.0580 C.ar   96  PHE96      -0.0003
    116  CE2       12.2880   21.6620   33.6040 C.ar   96  PHE96      -0.0003
    117  CZ        12.3890   22.1460   32.3050 C.ar   96  PHE96      -0.0000
    118  N         11.4140   25.9270   35.0500 N.am   97  CYS97      -0.1968
    119  CA         9.9590   25.8560   35.1770 C.3    97  CYS97       0.1712
    120  C          9.5690   24.8020   34.1610 C.2    97  CYS97       0.2296
    121  O          9.5120   25.0780   32.9680 O.2    97  CYS97      -0.2864
    122  CB         9.3220   27.2030   34.8370 C.3    97  CYS97       0.0983
    123  SG         9.8570   28.5440   35.9450 S.3    97  CYS97      -0.0798
    124  N          6.5700   25.0890   31.2360 N.3   100  GLY100     -0.1225
    125  CA         6.6890   25.9630   30.0750 C.3   100  GLY100      0.1811
    126  C          5.9260   27.2790   30.1130 C.2   100  GLY100      0.2280
    127  O          5.3950   27.6850   31.1530 O.2   100  GLY100     -0.2866
    128  N          9.5530   44.5720   39.7170 N.3   147  LEU147     -0.1245
    129  CA        10.5050   45.0720   38.7330 C.3   147  LEU147      0.1561
    130  C         10.4070   46.5900   38.5320 C.2   147  LEU147      0.2260
    131  O         11.4210   47.2810   38.4630 O.2   147  LEU147     -0.2867
    132  CB        10.3000   44.3470   37.3930 C.3   147  LEU147      0.0270
    133  CG        10.6120   42.8480   37.3900 C.3   147  LEU147      0.0019
    134  CD1       10.3760   42.2640   36.0100 C.3   147  LEU147      0.0001
    135  CD2       12.0630   42.6280   37.8210 C.3   147  LEU147      0.0001
    136  N         13.2540   48.6530   36.6280 N.3   152  CYS152     -0.1235
    137  CA        13.4820   47.6290   35.6140 C.3   152  CYS152      0.1677
    138  C         12.2860   47.5030   34.6570 C.2   152  CYS152      0.2270
    139  O         11.1740   47.1930   35.0770 O.2   152  CYS152     -0.2867
    140  CB        13.7760   46.2910   36.3020 C.3   152  CYS152      0.0956
    141  SG        14.3330   44.9810   35.1810 S.3   152  CYS152     -0.0801
    142  N         10.5580   45.6150   31.4390 N.3   154  HIS154     -0.1241
    143  CA        10.5750   44.3840   30.6370 C.3   154  HIS154      0.1621
    144  C         10.7160   44.5520   29.1170 C.2   154  HIS154      0.2264
    145  O         11.5980   43.9460   28.5120 O.2   154  HIS154     -0.2867
    146  CB         9.3380   43.5330   30.9390 C.3   154  HIS154      0.0745
    147  CG         9.5230   42.0820   30.6160 C.ar  154  HIS154      0.0817
    148  ND1        9.7000   41.6260   29.3290 N.ar  154  HIS154     -0.2268
    149  CD2        9.6510   40.9980   31.4180 C.ar  154  HIS154      0.1154
    150  CE1        9.9370   40.3260   29.3500 C.ar  154  HIS154      0.1986
    151  NE2        9.9140   39.9200   30.6060 N.ar  154  HIS154     -0.2212
    152  N          6.1900   31.8970   32.7690 N.3   163  LEU163     -0.1245
    153  CA         6.4040   30.4690   32.9220 C.3   163  LEU163      0.1561
    154  C          5.5450   29.8940   34.0210 C.2   163  LEU163      0.2260
    155  O          5.2780   30.5630   35.0190 O.2   163  LEU163     -0.2867
    156  CB         7.8840   30.2090   33.2170 C.3   163  LEU163      0.0270
    157  CG         8.7820   30.8090   32.1300 C.3   163  LEU163      0.0019
    158  CD1       10.2470   30.6150   32.4700 C.3   163  LEU163      0.0001
    159  CD2        8.4580   30.1480   30.7990 C.3   163  LEU163      0.0001
    160  N          7.8450   35.5750   35.8250 N.3   172  ILE172     -0.1231
    161  CA         8.1390   36.4210   34.6810 C.3   172  ILE172      0.1692
    162  C          9.5340   36.0630   34.2160 C.2   172  ILE172      0.2592
    163  O         10.4670   36.0440   35.0180 O.2   172  ILE172     -0.2718
    164  CB         8.1080   37.8890   35.0760 C.3   172  ILE172      0.0266
    165  CG1        6.7280   38.2240   35.6340 C.3   172  ILE172      0.0019
    166  CG2        8.4710   38.7490   33.8820 C.3   172  ILE172      0.0020
    167  CD1        6.5790   39.6240   36.1390 C.3   172  ILE172      0.0001
    168  N          9.6750   35.7620   32.9310 N.am  173  CYS173     -0.1956
    169  CA        10.9720   35.3960   32.3830 C.3   173  CYS173      0.1843
    170  C         11.2300   36.2640   31.1640 C.2   173  CYS173      0.2625
    171  O         10.4400   37.1460   30.8440 O.2   173  CYS173     -0.2714
    172  CB        10.9820   33.9120   31.9690 C.3   173  CYS173      0.0997
    173  SG        10.2760   33.5860   30.3110 S.3   173  CYS173     -0.0797
    174  N         12.3420   36.0250   30.4840 N.am  174  ASP174     -0.1957
    175  CA        12.6450   36.7820   29.2840 C.3   174  ASP174      0.1840
    176  C         13.5620   35.9880   28.3720 C.2   174  ASP174      0.2622
    177  O         14.7680   35.9400   28.5870 O.2   174  ASP174     -0.2715
    178  CB        13.2930   38.1170   29.6280 C.3   174  ASP174      0.1450
    179  CG        13.4230   39.0130   28.4190 C.2   174  ASP174      0.3671
    180  OD1       13.0370   38.5630   27.3200 O.co2 174  ASP174     -0.2456
    181  OD2       13.9040   40.1560   28.5590 O.co2 174  ASP174     -0.2456
    182  N         12.9790   35.3530   27.3600 N.am  175  PHE175     -0.1974
    183  CA        13.7550   34.5590   26.4170 C.3   175  PHE175      0.1639
    184  C         14.7450   35.4050   25.6220 C.2   175  PHE175      0.2290
    185  O         15.5940   34.8620   24.9280 O.2   175  PHE175     -0.2864
    186  CB        12.8340   33.8180   25.4370 C.3   175  PHE175      0.0560
    187  CG        12.2490   32.5470   25.9870 C.ar  175  PHE175     -0.0200
    188  CD1       11.0510   32.5570   26.6910 C.ar  175  PHE175     -0.0042
    189  CD2       12.8960   31.3360   25.7980 C.ar  175  PHE175     -0.0042
    190  CE1       10.5050   31.3760   27.1940 C.ar  175  PHE175     -0.0003
    191  CE2       12.3560   30.1530   26.2980 C.ar  175  PHE175     -0.0003
    192  CZ        11.1620   30.1740   26.9960 C.ar  175  PHE175     -0.0000
@<TRIPOS>BOND
     1     4     3    2
     2     3     2    1
     3     1     2    1
     4   185   184    2
     5     9    10    1
     6     2     5    1
     7   186   187    1
     8   186   183    1
     9   184   183    1
    10    12    11    2
    11   189   187   ar
    12   189   191   ar
    13   187   188   ar
    14    15    13    1
    15   191   192   ar
    16    10    11    1
    17    10    13    1
    18   183   182    1
    19   188   190   ar
    20    13    14    1
    21     5     6    1
    22   192   190   ar
    23   180   179   ar
    24   182   176   am
    25     8     6    1
    26    33    34    1
    27    33    32    1
    28     6     7    1
    29    34    35    1
    30   176   177    2
    31   176   175    1
    32    35    36    1
    33   179   181   ar
    34   179   178    1
    35   145   144    2
    36    30    29    1
    37    30    31    2
    38    29    32    1
    39    29    28    1
    40    24    23    2
    41    44    43   ar
    42   144   143    1
    43   175   178    1
    44   175   174    1
    45   148   150   ar
    46   148   147   ar
    47   150   151   ar
    48    23    28   am
    49    23    22    1
    50   125   126    1
    51   125   124    1
    52   126   127    2
    53    43    45   ar
    54    43    42    1
    55   173   172    1
    56   174   170   am
    57   151   149   ar
    58   147   146    1
    59   147   149   ar
    60   143   146    1
    61   143   142    1
    62    26    25    1
    63   159   157    1
    64   171   170    2
    65    41    42    1
    66    41    38    1
    67    25    22    1
    68    25    27    1
    69    22    21    1
    70   170   169    1
    71    21    18   am
    72    37    38    1
    73   172   169    1
    74    38    39    1
    75   115   117   ar
    76   115   113   ar
    77    90    88    1
    78    84    85    1
    79   157   158    1
    80   157   156    1
    81   117   116   ar
    82   169   168    1
    83    20    17    1
    84    18    17    1
    85    18    19    2
    86    88    85    1
    87    88    89    1
    88    87    86    2
    89   152   153    1
    90    17    16    1
    91   153   156    1
    92   153   154    1
    93   168   162   am
    94   121   120    2
    95   113   112   ar
    96    85    86    1
    97    39    40    2
    98    53    51    1
    99   116   114   ar
   100   166   164    1
   101   154   155    2
   102   120   119    1
   103   162   161    1
   104   162   163    2
   105   112   114   ar
   106   112   111    1
   107    51    50    1
   108   138   139    2
   109   138   137    1
   110   161   164    1
   111   161   160    1
   112   122   119    1
   113   122   123    1
   114    96    95    1
   115   118   119    1
   116   118   109   am
   117    83    81    1
   118   164   165    1
   119    60    59    1
   120   141   140    1
   121    50    52    1
   122    50    47    1
   123    97    95    1
   124   111   108    1
   125   137   140    1
   126   137   136    1
   127   165   167    1
   128    59    61    1
   129    59    58    1
   130   108   109    1
   131   108   107    1
   132    82    81    1
   133    81    78    1
   134   101   100    2
   135    91    92    1
   136    95    92    1
   137   134   133    1
   138   109   110    2
   139    46    47    1
   140    47    48    1
   141    94    93    2
   142    92    93    1
   143   100   107   am
   144   100    99    1
   145    54    48   am
   146    54    55    1
   147    93    98   am
   148    58    55    1
   149    78    77    1
   150    78    79    1
   151    48    49    2
   152    77    72   am
   153   133   132    1
   154   133   135    1
   155   132   129    1
   156    69    67    1
   157    55    56    1
   158    98    99    1
   159    80    79    2
   160    75    74    1
   161    99   102    1
   162   131   130    2
   163   130   129    1
   164    72    71    1
   165    72    73    2
   166    71    74    1
   167    71    70    1
   168   129   128    1
   169    76    74    1
   170    67    66    1
   171   103   102    1
   172   103   104    1
   173    56    57    2
   174   104   105   ar
   175   104   106   ar
   176    66    68    1
   177    66    63    1
   178    62    63    1
   179    63    64    1
   180    64    65    2
