@<TRIPOS>MOLECULE
tmp/3cp9B00.pdb
 200 189 0 0 0
SMALL
GASTEIGER

@<TRIPOS>ATOM
      1  N         26.1660   -0.6970   27.9910 N.3    22  LEU22      -0.1245
      2  CA        25.0220   -0.4460   27.1200 C.3    22  LEU22       0.1561
      3  C         24.8360   -1.6310   26.1780 C.2    22  LEU22       0.2260
      4  O         23.7370   -1.8830   25.6800 O.2    22  LEU22      -0.2867
      5  CB        25.2540    0.8280   26.3040 C.3    22  LEU22       0.0270
      6  CG        25.3280    2.1540   27.0640 C.3    22  LEU22       0.0019
      7  CD1       25.7670    3.2620   26.1240 C.3    22  LEU22       0.0001
      8  CD2       23.9670    2.4720   27.6690 C.3    22  LEU22       0.0001
      9  N         30.1840   -1.6970   24.7890 N.3    28  VAL28      -0.1245
     10  CA        29.6990   -0.3260   24.7780 C.3    28  VAL28       0.1561
     11  C         29.3600    0.0910   26.1950 C.2    28  VAL28       0.2260
     12  O         28.5800   -0.5720   26.8790 O.2    28  VAL28      -0.2867
     13  CB        28.4390   -0.1670   23.8970 C.3    28  VAL28       0.0252
     14  CG1       28.0120    1.2930   23.8650 C.3    28  VAL28       0.0019
     15  CG2       28.7230   -0.6580   22.4870 C.3    28  VAL28       0.0019
     16  N         28.9520    7.8640   25.0190 N.3    46  ALA46      -0.1231
     17  CA        28.9490    6.4190   24.8600 C.3    46  ALA46       0.1694
     18  C         30.3760    6.0670   24.4760 C.2    46  ALA46       0.2592
     19  O         31.0250    6.8100   23.7340 O.2    46  ALA46      -0.2718
     20  CB        27.9980    6.0050   23.7680 C.3    46  ALA46       0.0304
     21  N         30.8670    4.9410   24.9780 N.am   47  VAL47      -0.1966
     22  CA        32.2340    4.5390   24.6890 C.3    47  VAL47       0.1727
     23  C         32.3230    3.0800   24.2760 C.2    47  VAL47       0.2616
     24  O         31.8140    2.2010   24.9650 O.2    47  VAL47      -0.2715
     25  CB        33.1390    4.7400   25.9240 C.3    47  VAL47       0.0290
     26  CG1       34.5870    4.4420   25.5650 C.3    47  VAL47       0.0023
     27  CG2       32.9860    6.1470   26.4590 C.3    47  VAL47       0.0023
     28  N         32.9660    2.8380   23.1410 N.am   48  LYS48      -0.1977
     29  CA        33.1580    1.4900   22.6330 C.3    48  LYS48       0.1596
     30  C         34.6310    1.1630   22.8890 C.2    48  LYS48       0.2287
     31  O         35.5110    1.9460   22.5410 O.2    48  LYS48      -0.2864
     32  CB        32.8360    1.4300   21.1350 C.3    48  LYS48       0.0298
     33  CG        32.9320    0.0310   20.5660 C.3    48  LYS48       0.0038
     34  CD        32.4870   -0.0550   19.1140 C.3    48  LYS48       0.0206
     35  CE        30.9860    0.1000   18.9780 C.3    48  LYS48       0.1093
     36  NZ        30.5080   -0.3800   17.6490 N.3    48  LYS48      -0.1314
     37  N         36.8030    1.6180   12.2930 N.3    62  GLU62      -0.1245
     38  CA        35.5430    2.2580   12.6270 C.3    62  GLU62       0.1567
     39  C         35.8200    3.7060   13.0280 C.2    62  GLU62       0.2260
     40  O         35.1260    4.6200   12.5940 O.2    62  GLU62      -0.2867
     41  CB        34.8800    1.4940   13.7680 C.3    62  GLU62       0.0388
     42  CG        33.4550    1.8820   14.0400 C.3    62  GLU62       0.1160
     43  CD        32.8140    0.9550   15.0470 C.2    62  GLU62       0.3649
     44  OE1       32.6860   -0.2540   14.7390 O.co2  62  GLU62      -0.2457
     45  OE2       32.4490    1.4280   16.1470 O.co2  62  GLU62      -0.2457
     46  N         36.6890    5.7320   10.0080 N.3    65  ILE65      -0.1231
     47  CA        35.5250    5.8950    9.1430 C.3    65  ILE65       0.1692
     48  C         34.5830    6.9640    9.6980 C.2    65  ILE65       0.2591
     49  O         33.9040    7.6540    8.9410 O.2    65  ILE65      -0.2718
     50  CB        34.7450    4.5800    8.9980 C.3    65  ILE65       0.0266
     51  CG1       35.6200    3.5330    8.3160 C.3    65  ILE65       0.0019
     52  CG2       33.4680    4.8090    8.1790 C.3    65  ILE65       0.0020
     53  CD1       34.9040    2.2230    8.0990 C.3    65  ILE65       0.0001
     54  N         34.5370    7.0870   11.0220 N.am   66  LEU66      -0.1980
     55  CA        33.6930    8.0880   11.6570 C.3    66  LEU66       0.1596
     56  C         34.3010    9.4640   11.3930 C.2    66  LEU66       0.2287
     57  O         33.5860   10.4480   11.1740 O.2    66  LEU66      -0.2864
     58  CB        33.5970    7.8330   13.1620 C.3    66  LEU66       0.0297
     59  CG        32.7700    6.6170   13.5850 C.3    66  LEU66       0.0022
     60  CD1       32.9350    6.3780   15.0760 C.3    66  LEU66       0.0001
     61  CD2       31.3050    6.8450   13.2390 C.3    66  LEU66       0.0001
     62  N         33.5470   10.2180    7.3790 N.3    69  ILE69      -0.1245
     63  CA        32.1430   10.5470    7.2010 C.3    69  ILE69       0.1561
     64  C         31.6700   11.9220    7.6840 C.2    69  ILE69       0.2260
     65  O         30.8250   12.5420    7.0420 O.2    69  ILE69      -0.2867
     66  CB        31.2880    9.4470    7.8570 C.3    69  ILE69       0.0252
     67  CG1       31.6040    8.1050    7.1960 C.3    69  ILE69       0.0019
     68  CG2       29.8210    9.7500    7.7130 C.3    69  ILE69       0.0019
     69  CD1       30.7720    6.9560    7.7160 C.3    69  ILE69       0.0001
     70  N         22.8390   10.6530   12.6770 N.3    75  VAL75      -0.1231
     71  CA        23.8640    9.6310   12.8160 C.3    75  VAL75       0.1692
     72  C         24.6350    9.8830   14.1170 C.2    75  VAL75       0.2591
     73  O         24.9020   11.0300   14.4690 O.2    75  VAL75      -0.2718
     74  CB        24.8330    9.6650   11.6060 C.3    75  VAL75       0.0266
     75  CG1       26.1160    8.9420   11.9340 C.3    75  VAL75       0.0020
     76  CG2       24.1740    9.0200   10.3950 C.3    75  VAL75       0.0020
     77  N         24.9640    8.8220   14.8490 N.am   76  VAL76      -0.1980
     78  CA        25.7200    8.9780   16.0860 C.3    76  VAL76       0.1595
     79  C         27.0930    9.5660   15.7530 C.2    76  VAL76       0.2287
     80  O         27.9070    8.9320   15.0930 O.2    76  VAL76      -0.2864
     81  CB        25.9180    7.6310   16.7990 C.3    76  VAL76       0.0276
     82  CG1       26.8230    7.8170   18.0090 C.3    76  VAL76       0.0022
     83  CG2       24.5730    7.0720   17.2280 C.3    76  VAL76       0.0022
     84  N         36.7940    4.4860   21.8040 N.3    91  VAL91      -0.1245
     85  CA        36.1370    5.3430   20.8160 C.3    91  VAL91       0.1561
     86  C         34.9290    5.9970   21.4960 C.2    91  VAL91       0.2260
     87  O         34.0240    5.3020   21.9820 O.2    91  VAL91      -0.2867
     88  CB        35.6540    4.5380   19.6120 C.3    91  VAL91       0.0252
     89  CG1       34.9540    5.4590   18.6250 C.3    91  VAL91       0.0019
     90  CG2       36.8270    3.8490   18.9570 C.3    91  VAL91       0.0019
     91  N         31.5890    8.6720   21.5110 N.3    93  THR93      -0.1203
     92  CA        30.5700    9.3430   20.7110 C.3    93  THR93       0.1994
     93  C         29.5140    9.9600   21.6110 C.2    93  THR93       0.2618
     94  O         29.5840    9.8640   22.8350 O.2    93  THR93      -0.2717
     95  CB        29.8430    8.3620   19.7600 C.3    93  THR93       0.1784
     96  OG1       29.0040    7.4800   20.5250 O.3    93  THR93      -0.2211
     97  CG2       30.8550    7.5440   18.9470 C.3    93  THR93       0.0376
     98  N         28.5250   10.5960   20.9980 N.am   94  GLU94      -0.1965
     99  CA        27.4460   11.2040   21.7550 C.3    94  GLU94       0.1733
    100  C         26.5670   10.0870   22.3150 C.2    94  GLU94       0.2616
    101  O         26.5650    8.9630   21.8060 O.2    94  GLU94      -0.2715
    102  CB        26.6330   12.1260   20.8500 C.3    94  GLU94       0.0429
    103  CG        26.1380   11.4510   19.6060 C.3    94  GLU94       0.1163
    104  CD        25.3620   12.3930   18.7160 C.2    94  GLU94       0.3649
    105  OE1       24.3620   12.9620   19.1970 O.co2  94  GLU94      -0.2457
    106  OE2       25.7450   12.5670   17.5380 O.co2  94  GLU94      -0.2457
    107  N         25.8300   10.4000   23.3710 N.am   95  PHE95      -0.1960
    108  CA        24.9670    9.4320   24.0300 C.3    95  PHE95       0.1771
    109  C         23.4990    9.7090   23.6950 C.2    95  PHE95       0.2619
    110  O         23.0550   10.8610   23.7340 O.2    95  PHE95      -0.2715
    111  CB        25.2090    9.5270   25.5420 C.3    95  PHE95       0.0574
    112  CG        24.2370    8.7470   26.3780 C.ar   95  PHE95      -0.0200
    113  CD1       24.2420    7.3620   26.3690 C.ar   95  PHE95      -0.0042
    114  CD2       23.3200    9.4070   27.1870 C.ar   95  PHE95      -0.0042
    115  CE1       23.3510    6.6410   27.1530 C.ar   95  PHE95      -0.0003
    116  CE2       22.4210    8.6950   27.9780 C.ar   95  PHE95      -0.0003
    117  CZ        22.4360    7.3090   27.9610 C.ar   95  PHE95      -0.0000
    118  N         22.7540    8.6640   23.3450 N.am   96  CYS96      -0.1968
    119  CA        21.3310    8.8180   23.0410 C.3    96  CYS96       0.1712
    120  C         20.5560    8.2580   24.2410 C.2    96  CYS96       0.2296
    121  O         20.4530    7.0480   24.4060 O.2    96  CYS96      -0.2864
    122  CB        20.9910    8.0640   21.7570 C.3    96  CYS96       0.0983
    123  SG        21.8800    8.6860   20.3000 S.3    96  CYS96      -0.0798
    124  N         17.7340    5.1060   24.0410 N.3    99  GLY99      -0.1225
    125  CA        18.0300    3.7800   23.5230 C.3    99  GLY99       0.1811
    126  C         17.5260    3.4430   22.1300 C.2    99  GLY99       0.2280
    127  O         17.0850    4.3200   21.3880 O.2    99  GLY99      -0.2866
    128  N         25.2050    8.7450    4.6160 N.3   140  LEU140     -0.1245
    129  CA        26.2150    7.6910    4.5780 C.3   140  LEU140      0.1561
    130  C         26.4910    7.1860    3.1530 C.2   140  LEU140      0.2260
    131  O         27.6220    6.8200    2.8310 O.2   140  LEU140     -0.2867
    132  CB        25.7930    6.5220    5.4860 C.3   140  LEU140      0.0270
    133  CG        25.6010    6.8640    6.9780 C.3   140  LEU140      0.0019
    134  CD1       25.1220    5.6410    7.7420 C.3   140  LEU140      0.0001
    135  CD2       26.9030    7.3790    7.5640 C.3   140  LEU140      0.0001
    136  N         29.4290    4.9910    2.0010 N.3   145  CYS145     -0.1221
    137  CA        29.5240    4.1600    3.1800 C.3   145  CYS145      0.1808
    138  C         28.2830    3.2740    3.3000 C.2   145  CYS145      0.2601
    139  O         27.1570    3.7460    3.1590 O.2   145  CYS145     -0.2717
    140  CB        29.6650    5.0690    4.3960 C.3   145  CYS145      0.0970
    141  SG        29.9720    4.2340    5.9500 S.3   145  CYS145     -0.0800
    142  N         28.4990    1.9860    3.5480 N.am  146  ILE146     -0.1965
    143  CA        27.4090    1.0220    3.6880 C.3   146  ILE146      0.1727
    144  C         27.2610    0.6840    5.1760 C.2   146  ILE146      0.2616
    145  O         28.2450    0.6940    5.9100 O.2   146  ILE146     -0.2715
    146  CB        27.7210   -0.2730    2.9020 C.3   146  ILE146      0.0290
    147  CG1       28.3270    0.0720    1.5420 C.3   146  ILE146      0.0022
    148  CG2       26.4510   -1.0630    2.6640 C.3   146  ILE146      0.0023
    149  CD1       28.7200   -1.1570    0.7300 C.3   146  ILE146      0.0001
    150  N         26.0470    0.3840    5.6280 N.am  147  HIS147     -0.1973
    151  CA        25.8490    0.0760    7.0420 C.3   147  HIS147      0.1656
    152  C         26.0520   -1.4060    7.3360 C.2   147  HIS147      0.2291
    153  O         26.6890   -1.7640    8.3340 O.2   147  HIS147     -0.2864
    154  CB        24.4540    0.5200    7.5010 C.3   147  HIS147      0.0771
    155  CG        24.2630    0.4730    8.9870 C.ar  147  HIS147      0.0820
    156  ND1       24.2220   -0.7070    9.6970 N.ar  147  HIS147     -0.2267
    157  CD2       24.1290    1.4660    9.9000 C.ar  147  HIS147      0.1154
    158  CE1       24.0740   -0.4400   10.9830 C.ar  147  HIS147      0.1986
    159  NE2       24.0150    0.8710   11.1330 N.ar  147  HIS147     -0.2212
    160  N         18.8740    4.7740   17.2880 N.3   156  LEU156     -0.1245
    161  CA        18.7370    5.2820   18.6420 C.3   156  LEU156      0.1561
    162  C         17.9030    6.5470   18.7000 C.2   156  LEU156      0.2260
    163  O         17.9190    7.3610   17.7780 O.2   156  LEU156     -0.2867
    164  CB        20.1160    5.5560   19.2280 C.3   156  LEU156      0.0270
    165  CG        21.1610    4.4530   19.0830 C.3   156  LEU156      0.0019
    166  CD1       22.4880    4.9490   19.6650 C.3   156  LEU156      0.0001
    167  CD2       20.7030    3.1970   19.7950 C.3   156  LEU156      0.0001
    168  N         21.3190    6.9620   13.5690 N.3   165  ILE165     -0.1231
    169  CA        21.7820    5.6530   13.1260 C.3   165  ILE165      0.1692
    170  C         23.0950    5.3310   13.8460 C.2   165  ILE165      0.2592
    171  O         24.0140    6.1450   13.8510 O.2   165  ILE165     -0.2718
    172  CB        22.0550    5.6410   11.6010 C.3   165  ILE165      0.0266
    173  CG1       20.7630    5.9020   10.8330 C.3   165  ILE165      0.0019
    174  CG2       22.6400    4.3000   11.1870 C.3   165  ILE165      0.0020
    175  CD1       20.9340    5.9540    9.3120 C.3   165  ILE165      0.0001
    176  N         23.1770    4.1450   14.4430 N.am  166  CYS166     -0.1956
    177  CA        24.3700    3.7070   15.1610 C.3   166  CYS166      0.1843
    178  C         24.7150    2.2850   14.7230 C.2   166  CYS166      0.2625
    179  O         24.1280    1.7600   13.7810 O.2   166  CYS166     -0.2714
    180  CB        24.1130    3.7090   16.6690 C.3   166  CYS166      0.0997
    181  SG        23.1920    2.2510   17.2950 S.3   166  CYS166     -0.0797
    182  N         25.6680    1.6640   15.4120 N.am  167  ASP167     -0.1957
    183  CA        26.0730    0.2930   15.1060 C.3   167  ASP167      0.1840
    184  C         26.8340   -0.2950   16.2970 C.2   167  ASP167      0.2622
    185  O         27.9920    0.0530   16.5470 O.2   167  ASP167     -0.2715
    186  CB        26.9410    0.2690   13.8450 C.3   167  ASP167      0.1450
    187  CG        27.2740   -1.1440   13.3800 C.2   167  ASP167      0.3671
    188  OD1       26.4650   -2.0690   13.6170 O.co2 167  ASP167     -0.2456
    189  OD2       28.3410   -1.3260   12.7540 O.co2 167  ASP167     -0.2456
    190  N         26.1690   -1.1780   17.0390 N.am  168  PHE168     -0.1974
    191  CA        26.7880   -1.7930   18.2090 C.3   168  PHE168      0.1639
    192  C         28.0170   -2.6220   17.8650 C.2   168  PHE168      0.2290
    193  O         28.9220   -2.7460   18.6860 O.2   168  PHE168     -0.2864
    194  CB        25.7820   -2.6720   18.9690 C.3   168  PHE168      0.0560
    195  CG        24.8160   -1.9020   19.8300 C.ar  168  PHE168     -0.0200
    196  CD1       23.7030   -1.2900   19.2800 C.ar  168  PHE168     -0.0042
    197  CD2       25.0210   -1.8000   21.2010 C.ar  168  PHE168     -0.0042
    198  CE1       22.8020   -0.5910   20.0810 C.ar  168  PHE168     -0.0003
    199  CE2       24.1270   -1.1030   22.0120 C.ar  168  PHE168     -0.0003
    200  CZ        23.0140   -0.4970   21.4490 C.ar  168  PHE168     -0.0000
@<TRIPOS>BOND
     1   149   147    1
     2   147   146    1
     3   136   137    1
     4   148   146    1
     5   131   130    2
     6   146   143    1
     7   130   129    1
     8   139   138    2
     9   137   138    1
    10   137   140    1
    11   138   142   am
    12   142   143    1
    13   143   144    1
    14   140   141    1
    15   129   128    1
    16   129   132    1
    17   144   150   am
    18   144   145    2
    19   132   133    1
    20   150   151    1
    21   133   135    1
    22   133   134    1
    23    65    64    2
    24   151   152    1
    25   151   154    1
    26    67    69    1
    27    67    66    1
    28    63    62    1
    29    63    64    1
    30    63    66    1
    31   152   153    2
    32   154   155    1
    33    68    66    1
    34    53    51    1
    35    52    50    1
    36    51    50    1
    37    49    48    2
    38   155   156   ar
    39   155   157   ar
    40    50    47    1
    41    47    48    1
    42    47    46    1
    43   175   173    1
    44   156   158   ar
    45    48    54   am
    46   157   159   ar
    47    76    74    1
    48   173   172    1
    49   158   159   ar
    50    54    55    1
    51    57    56    2
    52   174   172    1
    53    56    55    1
    54   172   169    1
    55    74    75    1
    56    74    71    1
    57    55    58    1
    58    37    38    1
    59    40    39    2
    60    38    39    1
    61    38    41    1
    62    70    71    1
    63   189   187   ar
    64    71    72    1
    65   169   168    1
    66   169   170    1
    67    58    59    1
    68    61    59    1
    69   187   188   ar
    70   187   186    1
    71    59    60    1
    72    41    42    1
    73   179   178    2
    74   186   183    1
    75   170   171    2
    76   170   176   am
    77    42    43    1
    78    72    73    2
    79    72    77   am
    80   176   177    1
    81   178   177    1
    82   178   182   am
    83    44    43   ar
    84    77    78    1
    85    43    45   ar
    86    80    79    2
    87   183   182    1
    88   183   184    1
    89   177   180    1
    90    79    78    1
    91    78    81    1
    92   184   185    2
    93   184   190   am
    94   180   181    1
    95    81    83    1
    96    81    82    1
    97   190   191    1
    98   160   161    1
    99   106   104   ar
   100    36    35    1
   101   163   162    2
   102   192   191    1
   103   192   193    2
   104   191   194    1
   105    89    88    1
   106   161   162    1
   107   161   164    1
   108   104   105   ar
   109   104   103    1
   110    97    95    1
   111    90    88    1
   112   194   195    1
   113    35    34    1
   114   165   164    1
   115   165   166    1
   116   165   167    1
   117    34    33    1
   118   196   195   ar
   119   196   198   ar
   120   103   102    1
   121    88    85    1
   122    95    96    1
   123    95    92    1
   124   195   197   ar
   125   198   200   ar
   126   123   122    1
   127    33    32    1
   128    92    91    1
   129    92    93    1
   130    85    86    1
   131    85    84    1
   132   102    99    1
   133    98    93   am
   134    98    99    1
   135    32    29    1
   136   197   199   ar
   137   127   126    2
   138   200   199   ar
   139    86    87    2
   140    93    94    2
   141    99   100    1
   142   122   119    1
   143   101   100    2
   144   126   125    1
   145   100   107   am
   146    15    13    1
   147    31    30    2
   148    29    30    1
   149    29    28    1
   150   119   118    1
   151   119   120    1
   152    28    23   am
   153   118   109   am
   154   107   108    1
   155   125   124    1
   156   109   110    2
   157   109   108    1
   158    19    18    2
   159    20    17    1
   160    14    13    1
   161    13    10    1
   162   108   111    1
   163   120   121    2
   164    23    22    1
   165    23    24    2
   166    18    17    1
   167    18    21   am
   168    22    21    1
   169    22    25    1
   170    10     9    1
   171    10    11    1
   172    17    16    1
   173   111   112    1
   174    26    25    1
   175     4     3    2
   176    25    27    1
   177     7     6    1
   178     3     2    1
   179    11    12    2
   180     5     6    1
   181     5     2    1
   182   113   112   ar
   183   113   115   ar
   184   112   114   ar
   185     6     8    1
   186     2     1    1
   187   115   117   ar
   188   114   116   ar
   189   117   116   ar
