@<TRIPOS>MOLECULE
tmp/3cpaA00.pdb
 133 125 0 0 0
SMALL
GASTEIGER

@<TRIPOS>ATOM
      1  N         -1.9510   21.6060   -5.3390 N.3    69  HIS69      -0.1241
      2  CA        -1.3510   22.2170   -4.0830 C.3    69  HIS69       0.1621
      3  C         -2.0280   21.5740   -2.8790 C.2    69  HIS69       0.2264
      4  O         -3.2250   21.7550   -2.6380 O.2    69  HIS69      -0.2867
      5  CB        -1.5770   23.7200   -4.1140 C.3    69  HIS69       0.0745
      6  CG        -0.8300   24.4890   -5.1410 C.ar   69  HIS69       0.0817
      7  ND1       -1.3320   25.5780   -5.7990 N.ar   69  HIS69      -0.2268
      8  CD2        0.4250   24.2990   -5.6390 C.ar   69  HIS69       0.1154
      9  CE1       -0.4840   25.9340   -6.7120 C.ar   69  HIS69       0.1986
     10  NE2        0.6470   25.3090   -6.5720 N.ar   69  HIS69      -0.2212
     11  N          2.3890   22.8370    0.5310 N.3   127  ARG127     -0.1301
     12  CA         1.6790   22.8820   -0.7630 C.3   127  ARG127      0.1248
     13  C          2.3980   22.2490   -1.9350 C.3   127  ARG127      0.2009
     14  O          1.7980   22.1210   -3.0680 O.3   127  ARG127     -0.2188
     15  CB         1.5130   24.4250   -1.0810 C.3   127  ARG127      0.0254
     16  CG         2.7750   24.9420   -1.7310 C.3   127  ARG127      0.0485
     17  CD         2.4580   25.4640   -3.1210 C.3   127  ARG127      0.2205
     18  NE         2.3420   26.9470   -3.0020 N.pl3 127  ARG127     -0.0865
     19  CZ         1.4810   27.6430   -3.7340 C.cat 127  ARG127      0.5346
     20  NH1        1.8920   28.3800   -4.8090 N.pl3 127  ARG127      0.1354
     21  NH2        0.2120   27.7050   -3.4120 N.pl3 127  ARG127      0.1354
     22  N          2.4280   23.6660   -9.7730 N.3   144  ASN144     -0.1225
     23  CA         1.7870   24.5740  -10.7370 C.3   144  ASN144      0.1785
     24  C          2.7300   25.6770  -11.2970 C.2   144  ASN144      0.2597
     25  O          2.2220   26.6280  -11.9440 O.2   144  ASN144     -0.2718
     26  CB         0.5130   25.1600  -10.1070 C.3   144  ASN144      0.1169
     27  CG        -0.4520   25.5500  -11.2830 C.2   144  ASN144      0.2627
     28  OD1       -0.3860   24.9190  -12.2760 O.2   144  ASN144     -0.2716
     29  ND2       -1.1100   26.6730  -11.1410 N.am  144  ASN144     -0.0877
     30  N          4.0010   25.4830  -11.1660 N.am  145  ARG145     -0.1979
     31  CA         5.0020   26.2600  -11.8730 C.3   145  ARG145      0.1597
     32  C          5.9770   25.4090  -12.6550 C.2   145  ARG145      0.2287
     33  O          6.9940   25.9490  -13.1390 O.2   145  ARG145     -0.2864
     34  CB         5.7430   27.1290  -10.8080 C.3   145  ARG145      0.0334
     35  CG         5.1760   28.5460  -10.8520 C.3   145  ARG145      0.0492
     36  CD         5.2560   29.1590   -9.4700 C.3   145  ARG145      0.2205
     37  NE         4.3620   30.3160   -9.4760 N.pl3 145  ARG145     -0.0865
     38  CZ         3.0370   30.1080   -9.4070 C.cat 145  ARG145      0.5346
     39  NH1        2.4000   29.1940  -10.1550 N.pl3 145  ARG145      0.1354
     40  NH2        2.3790   30.8690   -8.5540 N.pl3 145  ARG145      0.1354
     41  N         -8.2530   24.9480   -7.4910 N.3   196  HIS196     -0.1241
     42  CA        -7.3800   25.5240   -6.4300 C.3   196  HIS196      0.1621
     43  C         -8.1820   26.2170   -5.3540 C.2   196  HIS196      0.2264
     44  O         -9.4290   26.2980   -5.3660 O.2   196  HIS196     -0.2867
     45  CB        -6.4200   26.5190   -7.1080 C.3   196  HIS196      0.0745
     46  CG        -5.3110   25.8760   -7.8750 C.ar  196  HIS196      0.0817
     47  ND1       -4.0220   25.8230   -7.4600 N.ar  196  HIS196     -0.2268
     48  CD2       -5.3310   25.3470   -9.1060 C.ar  196  HIS196      0.1154
     49  CE1       -3.3020   25.3240   -8.4800 C.ar  196  HIS196      0.1986
     50  NE2       -4.0810   24.9900   -9.4750 N.ar  196  HIS196     -0.2212
     51  N        -10.1600   32.0390  -13.6540 N.3   203  LEU203     -0.1245
     52  CA        -9.0570   32.6780  -14.4470 C.3   203  LEU203      0.1561
     53  C         -8.9340   31.9040  -15.7310 C.2   203  LEU203      0.2260
     54  O         -9.1560   30.6960  -15.7790 O.2   203  LEU203     -0.2867
     55  CB        -7.8360   32.6700  -13.5220 C.3   203  LEU203      0.0270
     56  CG        -7.4380   33.7250  -12.5170 C.3   203  LEU203      0.0019
     57  CD1       -8.4850   34.7940  -12.3180 C.3   203  LEU203      0.0001
     58  CD2       -6.9530   33.0770  -11.2520 C.3   203  LEU203      0.0001
     59  N         -4.9850   35.3530  -15.7870 N.3   243  ILE243     -0.1245
     60  CA        -4.1570   35.2840  -14.5740 C.3   243  ILE243      0.1561
     61  C         -3.3390   36.5450  -14.3030 C.2   243  ILE243      0.2260
     62  O         -3.3200   37.0630  -13.1730 O.2   243  ILE243     -0.2867
     63  CB        -3.2050   34.0140  -14.7340 C.3   243  ILE243      0.0252
     64  CG1       -4.1020   32.7460  -14.9970 C.3   243  ILE243      0.0019
     65  CG2       -2.1360   33.8630  -13.6520 C.3   243  ILE243      0.0019
     66  CD1       -3.2480   31.5490  -15.6290 C.3   243  ILE243      0.0001
     67  N         -4.2770   38.5600  -11.2200 N.3   247  ILE247     -0.1231
     68  CA        -3.5160   38.0990  -10.0130 C.3   247  ILE247      0.1692
     69  C         -2.1320   38.7080  -10.1600 C.2   247  ILE247      0.2592
     70  O         -1.9150   39.8360   -9.7110 O.2   247  ILE247     -0.2718
     71  CB        -3.4850   36.5460   -9.9200 C.3   247  ILE247      0.0266
     72  CG1       -4.8880   35.9500  -10.0390 C.3   247  ILE247      0.0019
     73  CG2       -2.8520   36.1270   -8.5410 C.3   247  ILE247      0.0020
     74  CD1       -4.7860   34.4880  -10.6500 C.3   247  ILE247      0.0001
     75  N         -1.2920   37.9790  -10.8480 N.am  248  TYR248     -0.1976
     76  CA         0.1480   38.2970  -10.9400 C.3   248  TYR248      0.1639
     77  C          0.7520   37.4090  -11.9870 C.2   248  TYR248      0.2290
     78  O          0.1000   36.4230  -12.3880 O.2   248  TYR248     -0.2864
     79  CB         0.8610   38.1270   -9.5280 C.3   248  TYR248      0.0560
     80  CG         0.5160   36.8220   -8.8500 C.ar  248  TYR248     -0.0198
     81  CD1       -0.7820   36.6480   -8.2790 C.ar  248  TYR248     -0.0009
     82  CD2        1.3850   35.7350   -8.8300 C.ar  248  TYR248     -0.0009
     83  CE1       -1.1590   35.4250   -7.6380 C.ar  248  TYR248      0.0417
     84  CE2        1.0470   34.5270   -8.1750 C.ar  248  TYR248      0.0417
     85  CZ        -0.2170   34.3670   -7.6410 C.ar  248  TYR248      0.1957
     86  OH        -0.5210   33.1590   -7.0090 O.3   248  TYR248     -0.2866
     87  N          2.7860   34.6280  -13.4780 N.3   250  ALA250     -0.1245
     88  CA         3.0460   33.4780  -12.9020 C.3   250  ALA250      0.1562
     89  C          3.4030   32.6110  -14.1300 C.2   250  ALA250      0.2260
     90  O          2.5790   32.4200  -15.0140 O.2   250  ALA250     -0.2867
     91  CB         1.8220   32.9420  -12.2170 C.3   250  ALA250      0.0290
     92  N          2.3250   27.4450  -15.4210 N.3   253  GLY253     -0.1210
     93  CA         1.0520   26.9870  -14.9430 C.3   253  GLY253      0.1956
     94  C          0.3760   26.0280  -15.9520 C.2   253  GLY253      0.2613
     95  O          0.7100   25.9850  -17.1140 O.2   253  GLY253     -0.2717
     96  N         -0.4470   25.2130  -15.3250 N.am  254  SER254     -0.1938
     97  CA        -1.3800   24.2550  -15.8390 C.3   254  SER254      0.2055
     98  C         -2.1350   24.7150  -17.1210 C.2   254  SER254      0.2643
     99  O         -1.9630   24.0570  -18.1790 O.2   254  SER254     -0.2714
    100  CB        -2.5500   24.0080  -14.7590 C.3   254  SER254      0.2130
    101  OG        -2.5940   22.6530  -14.8820 O.3   254  SER254     -0.2179
    102  N         -2.8410   25.7890  -16.9750 N.am  255  ILE255     -0.1963
    103  CA        -3.7700   26.4010  -17.9450 C.3   255  ILE255      0.1727
    104  C         -3.0760   26.9880  -19.1530 C.2   255  ILE255      0.2616
    105  O         -3.6760   26.9760  -20.2950 O.2   255  ILE255     -0.2715
    106  CB        -4.5670   27.4590  -17.0670 C.3   255  ILE255      0.0290
    107  CG1       -5.4780   26.4880  -16.2040 C.3   255  ILE255      0.0022
    108  CG2       -5.2480   28.7060  -17.4400 C.3   255  ILE255      0.0023
    109  CD1       -6.5150   25.7030  -16.9200 C.3   255  ILE255      0.0001
    110  N         -1.8970   27.5450  -18.9330 N.am  256  ASP256     -0.1971
    111  CA        -1.0780   28.1820  -20.0190 C.3   256  ASP256      0.1709
    112  C         -0.6370   27.0800  -20.9610 C.2   256  ASP256      0.2293
    113  O         -0.8140   27.0210  -22.1840 O.2   256  ASP256     -0.2864
    114  CB         0.0100   29.0230  -19.4240 C.3   256  ASP256      0.1436
    115  CG        -0.4330   30.2690  -18.6480 C.2   256  ASP256      0.3671
    116  OD1       -1.6640   30.4960  -18.5660 O.co2 256  ASP256     -0.2456
    117  OD2        0.4090   30.9890  -18.0930 O.co2 256  ASP256     -0.2456
    118  N         -8.8010   28.0650  -14.5810 N.3   268  THR268     -0.1218
    119  CA        -8.4720   27.6830  -13.2010 C.3   268  THR268      0.1862
    120  C         -9.4650   28.2750  -12.2160 C.2   268  THR268      0.2287
    121  O         -9.7450   29.5150  -12.3530 O.2   268  THR268     -0.2866
    122  CB        -7.0700   28.1980  -12.6580 C.3   268  THR268      0.1770
    123  OG1       -6.1510   28.2620  -13.7580 O.3   268  THR268     -0.2211
    124  CG2       -6.6350   27.3720  -11.4370 C.3   268  THR268      0.0375
    125  N        -10.1470   29.2890   -8.2710 N.3   270  GLU270     -0.1245
    126  CA        -9.5990   29.4320   -6.8850 C.3   270  GLU270      0.1567
    127  C        -10.8460   29.5350   -6.0130 C.2   270  GLU270      0.2260
    128  O        -11.5800   30.5230   -6.1100 O.2   270  GLU270     -0.2867
    129  CB        -8.7730   30.7190   -6.8480 C.3   270  GLU270      0.0388
    130  CG        -7.8140   31.0220   -7.9940 C.3   270  GLU270      0.1160
    131  CD        -6.5330   31.6790   -7.4830 C.2   270  GLU270      0.3649
    132  OE1       -5.4740   31.7150   -8.0760 O.co2 270  GLU270     -0.2457
    133  OE2       -6.5770   32.2150   -6.3530 O.co2 270  GLU270     -0.2457
@<TRIPOS>BOND
     1   113   112    2
     2   112   111    1
     3   105   104    2
     4   111   114    1
     5   111   110    1
     6   114   115    1
     7   104   110   am
     8   104   103    1
     9   115   116   ar
    10   115   117   ar
    11    99    98    2
    12   103   106    1
    13   103   102    1
    14   108   106    1
    15    98   102   am
    16    98    97    1
    17    95    94    2
    18   106   107    1
    19   109   107    1
    20    94    96   am
    21    94    93    1
    22    97    96    1
    23    97   100    1
    24    59    60    1
    25    54    53    2
    26    53    52    1
    27    66    64    1
    28    92    93    1
    29    90    89    2
    30    64    63    1
    31   101   100    1
    32    63    60    1
    33    63    65    1
    34   118   119    1
    35    60    61    1
    36    52    51    1
    37    52    55    1
    38    61    62    2
    39    89    88    1
    40   123   122    1
    41    55    56    1
    42    87    88    1
    43   119   122    1
    44   119   120    1
    45    33    32    2
    46    88    91    1
    47   122   124    1
    48    32    31    1
    49    56    57    1
    50    56    58    1
    51    78    77    2
    52   121   120    2
    53    28    27    2
    54    77    76    1
    55    25    24    2
    56    31    30    1
    57    31    34    1
    58    24    30   am
    59    24    23    1
    60    27    29   am
    61    27    26    1
    62    67    68    1
    63    76    75    1
    64    76    79    1
    65    35    34    1
    66    35    36    1
    67    75    69   am
    68    23    26    1
    69    23    22    1
    70    74    72    1
    71    69    68    1
    72    69    70    2
    73    39    38    1
    74    72    71    1
    75    68    71    1
    76    71    73    1
    77    79    80    1
    78    37    36    1
    79    37    38    2
    80    50    48   ar
    81    50    49   ar
    82    38    40    1
    83    48    46   ar
    84    80    82   ar
    85    80    81   ar
    86    82    84   ar
    87    49    47   ar
    88    81    83   ar
    89   125   126    1
    90    84    85   ar
    91   132   131   ar
    92   130   131    1
    93   130   129    1
    94    46    47   ar
    95    46    45    1
    96    85    83   ar
    97    85    86    1
    98    41    42    1
    99   131   133   ar
   100    45    42    1
   101   126   129    1
   102   126   127    1
   103     9    10   ar
   104     9     7   ar
   105    10     8   ar
   106    42    43    1
   107   128   127    2
   108     7     6   ar
   109     8     6   ar
   110    44    43    2
   111     1     2    1
   112     6     5    1
   113    20    19    1
   114     5     2    1
   115     2     3    1
   116    19    21    1
   117    19    18    2
   118    17    18    1
   119    17    16    1
   120    14    13    1
   121     3     4    2
   122    13    12    1
   123    16    15    1
   124    15    12    1
   125    12    11    1
