@<TRIPOS>MOLECULE
tmp/3cpbB00.pdb
 200 189 0 0 0
SMALL
GASTEIGER

@<TRIPOS>ATOM
      1  N         26.1930   -1.4120   28.7120 N.3    21  LEU21      -0.1245
      2  CA        24.9890   -1.3100   27.8850 C.3    21  LEU21       0.1561
      3  C         24.8070   -2.5040   26.9390 C.2    21  LEU21       0.2260
      4  O         25.7780   -3.1190   26.4870 O.2    21  LEU21      -0.2867
      5  CB        25.0050    0.0000   27.0880 C.3    21  LEU21       0.0270
      6  CG        24.9530    1.3160   27.8750 C.3    21  LEU21       0.0019
      7  CD1       25.6920    2.4240   27.1430 C.3    21  LEU21       0.0001
      8  CD2       23.5140    1.7260   28.1710 C.3    21  LEU21       0.0001
      9  N         30.1830   -1.9280   25.2060 N.3    24  VAL24      -0.1245
     10  CA        29.6830   -0.5590   25.1620 C.3    24  VAL24       0.1561
     11  C         29.3140   -0.1470   26.5870 C.2    24  VAL24       0.2260
     12  O         28.4410   -0.7550   27.2170 O.2    24  VAL24      -0.2867
     13  CB        28.4620   -0.4000   24.2240 C.3    24  VAL24       0.0252
     14  CG1       28.0240    1.0630   24.1610 C.3    24  VAL24       0.0019
     15  CG2       28.7790   -0.9170   22.8300 C.3    24  VAL24       0.0019
     16  N         28.8220    7.5100   25.3710 N.3    42  ALA42      -0.1231
     17  CA        28.9460    6.0710   25.1720 C.3    42  ALA42       0.1694
     18  C         30.3780    5.7230   24.7740 C.2    42  ALA42       0.2592
     19  O         30.9500    6.3440   23.8750 O.2    42  ALA42      -0.2718
     20  CB        27.9690    5.5990   24.1280 C.3    42  ALA42       0.0304
     21  N         30.9590    4.7420   25.4570 N.am   43  VAL43      -0.1966
     22  CA        32.3410    4.3500   25.2080 C.3    43  VAL43       0.1727
     23  C         32.4100    2.8780   24.8150 C.2    43  VAL43       0.2616
     24  O         31.9590    2.0090   25.5630 O.2    43  VAL43      -0.2715
     25  CB        33.2460    4.6310   26.4360 C.3    43  VAL43       0.0290
     26  CG1       34.6730    4.1420   26.1890 C.3    43  VAL43       0.0023
     27  CG2       33.2490    6.1240   26.7710 C.3    43  VAL43       0.0023
     28  N         32.9610    2.6110   23.6330 N.am   44  LYS44      -0.1977
     29  CA        33.1360    1.2460   23.1540 C.3    44  LYS44       0.1596
     30  C         34.5840    0.8190   23.3070 C.2    44  LYS44       0.2287
     31  O         35.4930    1.5170   22.8570 O.2    44  LYS44      -0.2864
     32  CB        32.6910    1.0950   21.6910 C.3    44  LYS44       0.0298
     33  CG        32.6910   -0.3580   21.2200 C.3    44  LYS44       0.0038
     34  CD        32.1430   -0.5510   19.8180 C.3    44  LYS44       0.0206
     35  CE        32.4940   -1.9560   19.3290 C.3    44  LYS44       0.1093
     36  NZ        31.6850   -2.4100   18.1670 N.3    44  LYS44      -0.1314
     37  N         36.2790    1.1260   12.7560 N.3    58  GLU58      -0.1245
     38  CA        35.0660    1.8190   13.1830 C.3    58  GLU58       0.1567
     39  C         35.3380    3.2920   13.4540 C.2    58  GLU58       0.2260
     40  O         34.5430    4.1560   13.0860 O.2    58  GLU58      -0.2867
     41  CB        34.5090    1.1810   14.4500 C.3    58  GLU58       0.0388
     42  CG        33.6780   -0.0530   14.2310 C.3    58  GLU58       0.1160
     43  CD        32.8810   -0.4160   15.4610 C.2    58  GLU58       0.3649
     44  OE1       32.9110   -1.6010   15.8500 O.co2  58  GLU58      -0.2457
     45  OE2       32.2360    0.4830   16.0460 O.co2  58  GLU58      -0.2457
     46  N         36.4250    5.1210    9.9470 N.3    61  ILE61      -0.1231
     47  CA        35.2250    5.2290    9.1120 C.3    61  ILE61       0.1692
     48  C         34.3090    6.3480    9.6260 C.2    61  ILE61       0.2591
     49  O         33.7570    7.1090    8.8310 O.2    61  ILE61      -0.2718
     50  CB        34.4890    3.8620    8.9810 C.3    61  ILE61       0.0266
     51  CG1       35.3070    2.9080    8.1010 C.3    61  ILE61       0.0019
     52  CG2       33.0990    4.0320    8.3830 C.3    61  ILE61       0.0020
     53  CD1       34.8300    1.4550    8.1190 C.3    61  ILE61       0.0001
     54  N         34.1830    6.4600   10.9500 N.am   62  LEU62      -0.1980
     55  CA        33.4210    7.5460   11.5690 C.3    62  LEU62       0.1596
     56  C         34.0350    8.9260   11.3050 C.2    62  LEU62       0.2287
     57  O         33.3100    9.8990   11.0750 O.2    62  LEU62      -0.2864
     58  CB        33.2390    7.3100   13.0720 C.3    62  LEU62       0.0297
     59  CG        32.0870    6.3870   13.4870 C.3    62  LEU62       0.0022
     60  CD1       32.2450    5.9330   14.9320 C.3    62  LEU62       0.0001
     61  CD2       30.7230    7.0390   13.2690 C.3    62  LEU62       0.0001
     62  N         33.5050    9.5560    7.4090 N.3    65  ILE65      -0.1245
     63  CA        32.0950    9.8640    7.1760 C.3    65  ILE65       0.1561
     64  C         31.7530   11.3160    7.5300 C.2    65  ILE65       0.2260
     65  O         31.0350   11.9860    6.7840 O.2    65  ILE65      -0.2867
     66  CB        31.1880    8.8570    7.9380 C.3    65  ILE65       0.0252
     67  CG1       31.0480    7.5650    7.1300 C.3    65  ILE65       0.0019
     68  CG2       29.8130    9.4290    8.2380 C.3    65  ILE65       0.0019
     69  CD1       30.5800    6.3750    7.9530 C.3    65  ILE65       0.0001
     70  N         23.3890   10.0530   12.1430 N.3    71  VAL71      -0.1231
     71  CA        24.3950    9.0190   12.3690 C.3    71  VAL71       0.1692
     72  C         25.0840    9.3110   13.7010 C.2    71  VAL71       0.2591
     73  O         25.5380   10.4350   13.9320 O.2    71  VAL71      -0.2718
     74  CB        25.4330    8.9500   11.2210 C.3    71  VAL71       0.0266
     75  CG1       26.4450    7.8290   11.4650 C.3    71  VAL71       0.0020
     76  CG2       24.7400    8.7530    9.8800 C.3    71  VAL71       0.0020
     77  N         25.1490    8.3010   14.5720 N.am   72  VAL72      -0.1980
     78  CA        25.7270    8.4570   15.9070 C.3    72  VAL72       0.1595
     79  C         27.0630    9.2020   15.8480 C.2    72  VAL72       0.2287
     80  O         27.9790    8.8090   15.1250 O.2    72  VAL72      -0.2864
     81  CB        25.8380    7.1070   16.6670 C.3    72  VAL72       0.0276
     82  CG1       26.8940    6.1840   16.0470 C.3    72  VAL72       0.0022
     83  CG2       26.1140    7.3480   18.1520 C.3    72  VAL72       0.0022
     84  N         36.5760    3.9960   21.9550 N.3    87  VAL87      -0.1245
     85  CA        35.8970    4.8150   20.9600 C.3    87  VAL87       0.1561
     86  C         34.6770    5.4490   21.6240 C.2    87  VAL87       0.2260
     87  O         33.8000    4.7470   22.1370 O.2    87  VAL87      -0.2867
     88  CB        35.5040    3.9890   19.7020 C.3    87  VAL87       0.0252
     89  CG1       34.5520    4.7690   18.8020 C.3    87  VAL87       0.0019
     90  CG2       36.7500    3.5800   18.9220 C.3    87  VAL87       0.0019
     91  N         31.3200    7.9520   21.6380 N.3    89  THR89      -0.1203
     92  CA        30.2570    8.6310   20.9030 C.3    89  THR89       0.1994
     93  C         29.2710    9.2920   21.8600 C.2    89  THR89       0.2618
     94  O         29.3520    9.1080   23.0790 O.2    89  THR89      -0.2717
     95  CB        29.4490    7.6730   19.9760 C.3    89  THR89       0.1784
     96  OG1       28.7320    6.7180   20.7670 O.3    89  THR89      -0.2211
     97  CG2       30.3450    6.9670   18.9750 C.3    89  THR89       0.0376
     98  N         28.3380   10.0540   21.2900 N.am   90  GLU90      -0.1965
     99  CA        27.2050   10.6090   22.0260 C.3    90  GLU90       0.1733
    100  C         26.3590    9.4900   22.6460 C.2    90  GLU90       0.2616
    101  O         26.3820    8.3460   22.1790 O.2    90  GLU90      -0.2715
    102  CB        26.3510   11.4920   21.1050 C.3    90  GLU90       0.0429
    103  CG        25.8940   10.8040   19.8170 C.3    90  GLU90       0.1163
    104  CD        24.8210   11.5740   19.0540 C.2    90  GLU90       0.3649
    105  OE1       23.9710   12.2370   19.6900 O.co2  90  GLU90      -0.2457
    106  OE2       24.8180   11.5010   17.8060 O.co2  90  GLU90      -0.2457
    107  N         25.6300    9.8240   23.7050 N.am   91  PHE91      -0.1960
    108  CA        24.7610    8.8750   24.3860 C.3    91  PHE91       0.1771
    109  C         23.3120    9.1530   24.0030 C.2    91  PHE91       0.2619
    110  O         22.8510   10.3000   24.0600 O.2    91  PHE91      -0.2715
    111  CB        24.9680    8.9820   25.8980 C.3    91  PHE91       0.0574
    112  CG        23.9810    8.1990   26.7190 C.ar   91  PHE91      -0.0200
    113  CD1       24.1000    6.8190   26.8530 C.ar   91  PHE91      -0.0042
    114  CD2       22.9520    8.8500   27.3960 C.ar   91  PHE91      -0.0042
    115  CE1       23.1930    6.0930   27.6290 C.ar   91  PHE91      -0.0003
    116  CE2       22.0470    8.1350   28.1780 C.ar   91  PHE91      -0.0003
    117  CZ        22.1650    6.7530   28.2920 C.ar   91  PHE91      -0.0000
    118  N         22.6030    8.1020   23.5960 N.am   92  CYS92      -0.1968
    119  CA        21.2050    8.2210   23.2040 C.3    92  CYS92       0.1712
    120  C         20.3400    7.5930   24.2800 C.2    92  CYS92       0.2296
    121  O         20.1900    6.3670   24.3350 O.2    92  CYS92      -0.2864
    122  CB        20.9790    7.5570   21.8530 C.3    92  CYS92       0.0983
    123  SG        22.0390    8.2090   20.5590 S.3    92  CYS92      -0.0798
    124  N         17.7000    4.5400   24.0810 N.3    95  GLY95      -0.1225
    125  CA        18.1410    3.2170   23.6380 C.3    95  GLY95       0.1811
    126  C         17.7540    2.8850   22.2080 C.2    95  GLY95       0.2280
    127  O         17.4440    3.7780   21.4120 O.2    95  GLY95      -0.2866
    128  N         25.2340    8.3910    4.2930 N.3   135  LEU135     -0.1245
    129  CA        26.2160    7.2970    4.2750 C.3   135  LEU135      0.1561
    130  C         26.5520    6.8250    2.8610 C.2   135  LEU135      0.2260
    131  O         27.7150    6.5530    2.5560 O.2   135  LEU135     -0.2867
    132  CB        25.7390    6.1040    5.1180 C.3   135  LEU135      0.0270
    133  CG        25.6660    6.2450    6.6430 C.3   135  LEU135      0.0019
    134  CD1       25.0440    5.0010    7.2520 C.3   135  LEU135      0.0001
    135  CD2       27.0320    6.5010    7.2570 C.3   135  LEU135      0.0001
    136  N         29.4490    4.5020    1.7970 N.3   140  CYS140     -0.1221
    137  CA        29.3310    3.5930    2.9300 C.3   140  CYS140      0.1808
    138  C         28.0840    2.7430    2.8270 C.2   140  CYS140      0.2601
    139  O         26.9770    3.2600    2.6760 O.2   140  CYS140     -0.2717
    140  CB        29.2890    4.3640    4.2450 C.3   140  CYS140      0.0970
    141  SG        30.8700    4.5120    5.0600 S.3   140  CYS140     -0.0800
    142  N         28.2790    1.4340    2.9120 N.am  141  ILE141     -0.1965
    143  CA        27.1880    0.4800    3.0190 C.3   141  ILE141      0.1727
    144  C         27.0610    0.1250    4.5040 C.2   141  ILE141      0.2616
    145  O         28.0650    0.0780    5.2190 O.2   141  ILE141     -0.2715
    146  CB        27.4760   -0.7860    2.1690 C.3   141  ILE141      0.0290
    147  CG1       27.9760   -0.3950    0.7720 C.3   141  ILE141      0.0022
    148  CG2       26.2380   -1.6760    2.0630 C.3   141  ILE141      0.0023
    149  CD1       28.8320   -1.4640    0.0860 C.3   141  ILE141      0.0001
    150  N         25.8390   -0.1090    4.9750 N.am  142  HIS142     -0.1973
    151  CA        25.6330   -0.4540    6.3810 C.3   142  HIS142      0.1656
    152  C         25.8120   -1.9460    6.6670 C.2   142  HIS142      0.2291
    153  O         26.5190   -2.3170    7.6110 O.2   142  HIS142     -0.2864
    154  CB        24.2710    0.0270    6.8830 C.3   142  HIS142      0.0771
    155  CG        24.1500    0.0080    8.3730 C.ar  142  HIS142      0.0820
    156  ND1       23.8160   -1.1280    9.0770 N.ar  142  HIS142     -0.2267
    157  CD2       24.3490    0.9770    9.2960 C.ar  142  HIS142      0.1154
    158  CE1       23.8000   -0.8540   10.3680 C.ar  142  HIS142      0.1986
    159  NE2       24.1180    0.4170   10.5280 N.ar  142  HIS142     -0.2212
    160  N         19.2980    4.1560   17.2090 N.3   151  LEU151     -0.1245
    161  CA        19.2370    4.7150   18.5550 C.3   151  LEU151      0.1561
    162  C         18.3780    5.9700   18.6050 C.2   151  LEU151      0.2260
    163  O         18.3080    6.7180   17.6290 O.2   151  LEU151     -0.2867
    164  CB        20.6430    5.0240   19.0690 C.3   151  LEU151      0.0270
    165  CG        21.6210    3.8570   19.2470 C.3   151  LEU151      0.0019
    166  CD1       23.0090    4.4050   19.5140 C.3   151  LEU151      0.0001
    167  CD2       21.1980    2.8830   20.3550 C.3   151  LEU151      0.0001
    168  N         21.5510    6.4070   13.3340 N.3   160  ILE160     -0.1231
    169  CA        22.0100    5.1260   12.8130 C.3   160  ILE160      0.1692
    170  C         23.3200    4.7560   13.4970 C.2   160  ILE160      0.2592
    171  O         24.2020    5.5990   13.6690 O.2   160  ILE160     -0.2718
    172  CB        22.1890    5.1490   11.2730 C.3   160  ILE160      0.0266
    173  CG1       20.8890    5.5720   10.5860 C.3   160  ILE160      0.0019
    174  CG2       22.6360    3.7770   10.7610 C.3   160  ILE160      0.0020
    175  CD1       21.0500    5.9760    9.1370 C.3   160  ILE160      0.0001
    176  N         23.4260    3.4930   13.8960 N.am  161  CYS161     -0.1956
    177  CA        24.6430    2.9630   14.4890 C.3   161  CYS161      0.1843
    178  C         24.8320    1.4960   14.0900 C.2   161  CYS161      0.2625
    179  O         24.0890    0.9780   13.2580 O.2   161  CYS161     -0.2714
    180  CB        24.6020    3.1260   16.0090 C.3   161  CYS161      0.0997
    181  SG        23.3410    2.1270   16.8210 S.3   161  CYS161     -0.0797
    182  N         25.8370    0.8430   14.6750 N.am  162  ASP162     -0.1957
    183  CA        26.1100   -0.5720   14.4290 C.3   162  ASP162      0.1840
    184  C         26.7110   -1.2230   15.6790 C.2   162  ASP162      0.2622
    185  O         27.7440   -0.7770   16.1830 O.2   162  ASP162     -0.2715
    186  CB        27.0530   -0.7310   13.2270 C.3   162  ASP162      0.1450
    187  CG        27.1710   -2.1780   12.7470 C.2   162  ASP162      0.3671
    188  OD1       26.2260   -2.9680   12.9550 O.co2 162  ASP162     -0.2456
    189  OD2       28.2140   -2.5210   12.1460 O.co2 162  ASP162     -0.2456
    190  N         26.0630   -2.2750   16.1770 N.am  163  PHE163     -0.1974
    191  CA        26.5430   -2.9690   17.3800 C.3   163  PHE163      0.1639
    192  C         27.5050   -4.1290   17.0900 C.2   163  PHE163      0.2290
    193  O         28.6210   -4.1530   17.6180 O.2   163  PHE163     -0.2864
    194  CB        25.3740   -3.4300   18.2560 C.3   163  PHE163      0.0560
    195  CG        24.7820   -2.3350   19.1010 C.ar  163  PHE163     -0.0200
    196  CD1       23.6890   -1.5990   18.6470 C.ar  163  PHE163     -0.0042
    197  CD2       25.3170   -2.0370   20.3530 C.ar  163  PHE163     -0.0042
    198  CE1       23.1370   -0.5830   19.4250 C.ar  163  PHE163     -0.0003
    199  CE2       24.7680   -1.0170   21.1470 C.ar  163  PHE163     -0.0003
    200  CZ        23.6770   -0.2900   20.6780 C.ar  163  PHE163     -0.0000
@<TRIPOS>BOND
     1   149   147    1
     2   147   146    1
     3   136   137    1
     4   148   146    1
     5   146   143    1
     6   131   130    2
     7   139   138    2
     8   138   142   am
     9   138   137    1
    10   130   129    1
    11   142   143    1
    12   137   140    1
    13   143   144    1
    14   140   141    1
    15   129   128    1
    16   129   132    1
    17   144   150   am
    18   144   145    2
    19   150   151    1
    20   132   133    1
    21   151   152    1
    22   151   154    1
    23   133   134    1
    24   133   135    1
    25   152   153    2
    26    65    64    2
    27   154   155    1
    28    67    66    1
    29    67    69    1
    30    63    62    1
    31    63    64    1
    32    63    66    1
    33    66    68    1
    34    51    53    1
    35    51    50    1
    36   155   156   ar
    37   155   157   ar
    38    52    50    1
    39    49    48    2
    40    50    47    1
    41   156   158   ar
    42    47    48    1
    43    47    46    1
    44   175   173    1
    45   157   159   ar
    46    48    54   am
    47    76    74    1
    48   158   159   ar
    49   173   172    1
    50   174   172    1
    51    54    55    1
    52    57    56    2
    53    74    75    1
    54    74    71    1
    55   172   169    1
    56    56    55    1
    57    55    58    1
    58    70    71    1
    59   189   187   ar
    60    71    72    1
    61   187   188   ar
    62   187   186    1
    63    37    38    1
    64   169   168    1
    65   169   170    1
    66    58    59    1
    67    40    39    2
    68    38    39    1
    69    38    41    1
    70   186   183    1
    71   179   178    2
    72    61    59    1
    73    59    60    1
    74   170   171    2
    75   170   176   am
    76    72    73    2
    77    72    77   am
    78   176   177    1
    79   178   177    1
    80   178   182   am
    81    42    41    1
    82    42    43    1
    83   183   182    1
    84   183   184    1
    85   177   180    1
    86    77    78    1
    87    80    79    2
    88    43    44   ar
    89    43    45   ar
    90   184   190   am
    91   184   185    2
    92    79    78    1
    93    78    81    1
    94   180   181    1
    95    82    81    1
    96   190   191    1
    97    81    83    1
    98   192   191    1
    99   192   193    2
   100   160   161    1
   101   191   194    1
   102   163   162    2
   103   106   104   ar
   104    36    35    1
   105   194   195    1
   106   161   162    1
   107   161   164    1
   108   196   195   ar
   109   196   198   ar
   110    89    88    1
   111    90    88    1
   112    97    95    1
   113   104   105   ar
   114   104   103    1
   115   164   165    1
   116   195   197   ar
   117   165   166    1
   118   165   167    1
   119    35    34    1
   120   198   200   ar
   121    88    85    1
   122   103   102    1
   123    34    33    1
   124    95    96    1
   125    95    92    1
   126   197   199   ar
   127   123   122    1
   128   200   199   ar
   129    92    91    1
   130    92    93    1
   131    85    86    1
   132    85    84    1
   133   102    99    1
   134    33    32    1
   135    98    93   am
   136    98    99    1
   137   127   126    2
   138    86    87    2
   139    32    29    1
   140   122   119    1
   141    93    94    2
   142    99   100    1
   143   101   100    2
   144   126   125    1
   145   100   107   am
   146    15    13    1
   147    31    30    2
   148    29    30    1
   149    29    28    1
   150   119   118    1
   151   119   120    1
   152   118   109   am
   153    28    23   am
   154   125   124    1
   155   107   108    1
   156    19    18    2
   157   109   110    2
   158   109   108    1
   159    20    17    1
   160    14    13    1
   161    13    10    1
   162   120   121    2
   163   108   111    1
   164    18    17    1
   165    18    21   am
   166    23    22    1
   167    23    24    2
   168    10     9    1
   169    10    11    1
   170    17    16    1
   171    22    21    1
   172    22    25    1
   173   111   112    1
   174    26    25    1
   175    25    27    1
   176     4     3    2
   177    11    12    2
   178   112   113   ar
   179   112   114   ar
   180   113   115   ar
   181     3     2    1
   182     5     6    1
   183     5     2    1
   184     7     6    1
   185   114   116   ar
   186   115   117   ar
   187     6     8    1
   188     2     1    1
   189   116   117   ar
