@<TRIPOS>MOLECULE
tmp/3cpbA00.pdb
 200 189 0 0 0
SMALL
GASTEIGER

@<TRIPOS>ATOM
      1  N         15.6680   24.2120   24.5780 N.3    22  LEU22      -0.1245
      2  CA        14.3210   24.6500   24.9500 C.3    22  LEU22       0.1561
      3  C         13.8600   25.7990   24.0670 C.2    22  LEU22       0.2260
      4  O         14.5930   26.2270   23.1760 O.2    22  LEU22      -0.2867
      5  CB        14.2700   25.0630   26.4270 C.3    22  LEU22       0.0270
      6  CG        14.5210   24.0020   27.5080 C.3    22  LEU22       0.0019
      7  CD1       14.6310   24.6660   28.8740 C.3    22  LEU22       0.0001
      8  CD2       13.4460   22.9150   27.5210 C.3    22  LEU22       0.0001
      9  N         18.9040   28.3830   24.7340 N.3    24  VAL24      -0.1245
     10  CA        18.5630   28.0190   26.1110 C.3    24  VAL24       0.1561
     11  C         18.3840   26.5030   26.2270 C.2    24  VAL24       0.2260
     12  O         17.5690   25.9130   25.5170 O.2    24  VAL24      -0.2867
     13  CB        17.2800   28.7400   26.6070 C.3    24  VAL24       0.0252
     14  CG1       17.1160   28.5700   28.1130 C.3    24  VAL24       0.0019
     15  CG2       17.3050   30.2230   26.2460 C.3    24  VAL24       0.0019
     16  N         17.6590   25.5720   34.0620 N.3    42  ALA42      -0.1231
     17  CA        17.7170   26.0930   32.7010 C.3    42  ALA42       0.1694
     18  C         18.9800   26.9200   32.5290 C.2    42  ALA42       0.2592
     19  O         19.3510   27.6930   33.4160 O.2    42  ALA42      -0.2718
     20  CB        16.5010   26.9220   32.3940 C.3    42  ALA42       0.0304
     21  N         19.6390   26.7480   31.3880 N.am   43  VAL43      -0.1966
     22  CA        20.9110   27.4070   31.1190 C.3    43  VAL43       0.1727
     23  C         20.8260   28.2180   29.8300 C.2    43  VAL43       0.2616
     24  O         20.4480   27.6910   28.7860 O.2    43  VAL43      -0.2715
     25  CB        22.0730   26.3780   31.0220 C.3    43  VAL43       0.0290
     26  CG1       23.3980   27.0730   30.7290 C.3    43  VAL43       0.0023
     27  CG2       22.1780   25.5620   32.3010 C.3    43  VAL43       0.0023
     28  N         21.1700   29.5010   29.9200 N.am   44  LYS44      -0.1977
     29  CA        21.2630   30.3720   28.7530 C.3    44  LYS44       0.1596
     30  C         22.7290   30.4740   28.3610 C.2    44  LYS44       0.2287
     31  O         23.5770   30.8370   29.1730 O.2    44  LYS44      -0.2864
     32  CB        20.6900   31.7550   29.0600 C.3    44  LYS44       0.0298
     33  CG        20.0480   32.4510   27.8710 C.3    44  LYS44       0.0038
     34  CD        19.6850   33.8920   28.2070 C.3    44  LYS44       0.0206
     35  CE        18.5180   34.4070   27.3680 C.3    44  LYS44       0.1093
     36  NZ        17.1870   34.0030   27.9280 N.3    44  LYS44      -0.1314
     37  N         22.3360   41.1280   31.2880 N.3    61  GLU61      -0.1245
     38  CA        21.1540   40.3550   31.6420 C.3    61  GLU61       0.1567
     39  C         21.3790   39.6000   32.9570 C.2    61  GLU61       0.2260
     40  O         20.4740   39.4970   33.7930 O.2    61  GLU61      -0.2867
     41  CB        20.8390   39.3800   30.5110 C.3    61  GLU61       0.0388
     42  CG        19.4360   38.8240   30.5150 C.3    61  GLU61       0.1160
     43  CD        19.2210   37.7810   29.4310 C.2    61  GLU61       0.3649
     44  OE1       19.5640   38.0490   28.2550 O.co2  61  GLU61      -0.2457
     45  OE2       18.7050   36.6890   29.7530 O.co2  61  GLU61      -0.2457
     46  N         21.7600   42.4030   35.8250 N.3    64  ILE64      -0.1231
     47  CA        20.4250   42.9020   36.1430 C.3    64  ILE64       0.1692
     48  C         19.7080   41.9360   37.0790 C.2    64  ILE64       0.2591
     49  O         19.1300   42.3540   38.0880 O.2    64  ILE64      -0.2718
     50  CB        19.5720   43.1500   34.8700 C.3    64  ILE64       0.0266
     51  CG1       19.9680   44.4750   34.2050 C.3    64  ILE64       0.0019
     52  CG2       18.0770   43.1600   35.2040 C.3    64  ILE64       0.0020
     53  CD1       19.3570   44.7000   32.8340 C.3    64  ILE64       0.0001
     54  N         19.7600   40.6450   36.7540 N.am   65  LEU65      -0.1980
     55  CA        19.1430   39.6260   37.6010 C.3    65  LEU65       0.1596
     56  C         19.7260   39.6040   39.0190 C.2    65  LEU65       0.2287
     57  O         18.9790   39.4480   39.9870 O.2    65  LEU65      -0.2864
     58  CB        19.2080   38.2430   36.9450 C.3    65  LEU65       0.0297
     59  CG        18.1200   37.9780   35.8990 C.3    65  LEU65       0.0022
     60  CD1       18.5330   36.8950   34.9120 C.3    65  LEU65       0.0001
     61  CD2       16.8030   37.6170   36.5720 C.3    65  LEU65       0.0001
     62  N         18.5410   43.1750   40.8740 N.3    68  ILE68      -0.1245
     63  CA        17.1300   43.2500   41.2790 C.3    68  ILE68       0.1561
     64  C         16.8180   42.4150   42.5250 C.2    68  ILE68       0.2260
     65  O         15.9750   42.7990   43.3380 O.2    68  ILE68      -0.2867
     66  CB        16.1340   42.9130   40.1220 C.3    68  ILE68       0.0252
     67  CG1       16.2130   41.4330   39.7140 C.3    68  ILE68       0.0019
     68  CG2       16.3570   43.8400   38.9260 C.3    68  ILE68       0.0019
     69  CD1       15.1680   41.0010   38.6810 C.3    68  ILE68       0.0001
     70  N          9.5410   36.4710   39.4140 N.3    74  VAL74      -0.1231
     71  CA        10.5320   36.8030   38.3880 C.3    74  VAL74       0.1692
     72  C         11.5650   35.6890   38.3850 C.2    74  VAL74       0.2591
     73  O         12.1440   35.3830   39.4220 O.2    74  VAL74      -0.2718
     74  CB        11.2390   38.1620   38.6440 C.3    74  VAL74       0.0266
     75  CG1       12.1380   38.5260   37.4660 C.3    74  VAL74       0.0020
     76  CG2       10.2280   39.2770   38.9060 C.3    74  VAL74       0.0020
     77  N         11.7940   35.0930   37.2180 N.am   75  VAL75      -0.1980
     78  CA        12.5850   33.8720   37.1140 C.3    75  VAL75       0.1595
     79  C         13.8400   33.9540   37.9910 C.2    75  VAL75       0.2287
     80  O         14.6580   34.8610   37.8380 O.2    75  VAL75      -0.2864
     81  CB        12.8950   33.5010   35.6310 C.3    75  VAL75       0.0276
     82  CG1       13.8450   34.5170   34.9800 C.3    75  VAL75       0.0022
     83  CG2       13.4330   32.0770   35.5270 C.3    75  VAL75       0.0022
     84  N         24.2740   31.5240   31.9060 N.3    90  VAL90      -0.1245
     85  CA        23.4290   32.1090   32.9420 C.3    90  VAL90       0.1561
     86  C         22.3920   31.0650   33.3490 C.2    90  VAL90       0.2260
     87  O         21.6410   30.5590   32.5040 O.2    90  VAL90      -0.2867
     88  CB        22.7410   33.4060   32.4580 C.3    90  VAL90       0.0252
     89  CG1       21.7790   33.9320   33.5090 C.3    90  VAL90       0.0019
     90  CG2       23.7760   34.4720   32.1160 C.3    90  VAL90       0.0019
     91  N         19.2090   29.6260   35.6480 N.3    92  THR92      -0.1203
     92  CA        18.0090   29.8410   36.4520 C.3    92  THR92       0.1994
     93  C         17.3620   28.5200   36.8440 C.2    92  THR92       0.2618
     94  O         17.8010   27.4490   36.4210 O.2    92  THR92      -0.2717
     95  CB        16.9470   30.6690   35.7000 C.3    92  THR92       0.1784
     96  OG1       16.4170   29.8990   34.6130 O.3    92  THR92      -0.2211
     97  CG2       17.5310   31.9730   35.1830 C.3    92  THR92       0.0376
     98  N         16.3110   28.6180   37.6510 N.am   93  GLU93      -0.1965
     99  CA        15.4410   27.4940   37.9580 C.3    93  GLU93       0.1733
    100  C         14.8050   26.9530   36.6820 C.2    93  GLU93       0.2616
    101  O         14.7320   27.6530   35.6680 O.2    93  GLU93      -0.2715
    102  CB        14.3480   27.9340   38.9300 C.3    93  GLU93       0.0429
    103  CG        13.4410   29.0400   38.3920 C.3    93  GLU93       0.1163
    104  CD        12.3680   29.4570   39.3810 C.2    93  GLU93       0.3649
    105  OE1       11.6600   28.5750   39.9190 O.co2  93  GLU93      -0.2457
    106  OE2       12.2230   30.6740   39.6150 O.co2  93  GLU93      -0.2457
    107  N         14.3530   25.7050   36.7370 N.am   94  PHE94      -0.1960
    108  CA        13.6080   25.1180   35.6320 C.3    94  PHE94       0.1771
    109  C         12.1190   25.0950   35.9530 C.2    94  PHE94       0.2619
    110  O         11.6840   24.4120   36.8870 O.2    94  PHE94      -0.2715
    111  CB        14.1080   23.7040   35.3090 C.3    94  PHE94       0.0574
    112  CG        13.3480   23.0380   34.1980 C.ar   94  PHE94      -0.0200
    113  CD1       13.4690   23.4910   32.8820 C.ar   94  PHE94      -0.0042
    114  CD2       12.5000   21.9650   34.4640 C.ar   94  PHE94      -0.0042
    115  CE1       12.7540   22.8860   31.8440 C.ar   94  PHE94      -0.0003
    116  CE2       11.7850   21.3480   33.4360 C.ar   94  PHE94      -0.0003
    117  CZ        11.9140   21.8130   32.1220 C.ar   94  PHE94      -0.0000
    118  N         11.3430   25.8490   35.1800 N.am   95  CYS95      -0.1968
    119  CA         9.8900   25.8650   35.3380 C.3    95  CYS95       0.1712
    120  C          9.2810   24.7320   34.5260 C.2    95  CYS95       0.2296
    121  O          9.2010   24.8070   33.3000 O.2    95  CYS95      -0.2864
    122  CB         9.3150   27.2100   34.9150 C.3    95  CYS95       0.0983
    123  SG         9.9880   28.5850   35.8450 S.3    95  CYS95      -0.0798
    124  N          6.7410   25.2330   31.3610 N.3    98  GLY98      -0.1225
    125  CA         7.1020   26.0570   30.2060 C.3    98  GLY98       0.1811
    126  C          6.3550   27.3750   30.1360 C.2    98  GLY98       0.2280
    127  O          5.8850   27.8850   31.1570 O.2    98  GLY98      -0.2866
    128  N          9.5730   44.8910   39.6160 N.3   145  LEU145     -0.1245
    129  CA        10.4920   45.3290   38.5660 C.3   145  LEU145      0.1561
    130  C         10.4270   46.8300   38.3420 C.2   145  LEU145      0.2260
    131  O         11.4630   47.4850   38.2320 O.2   145  LEU145     -0.2867
    132  CB        10.2460   44.5740   37.2490 C.3   145  LEU145      0.0270
    133  CG        10.6970   43.1100   37.1960 C.3   145  LEU145      0.0019
    134  CD1       10.4390   42.4950   35.8230 C.3   145  LEU145      0.0001
    135  CD2       12.1660   42.9680   37.5790 C.3   145  LEU145      0.0001
    136  N         13.3380   48.9630   36.3350 N.3   150  CYS150     -0.1221
    137  CA        13.3520   48.0350   35.2100 C.3   150  CYS150      0.1808
    138  C         12.2200   48.3160   34.2440 C.2   150  CYS150      0.2601
    139  O         11.1540   48.7710   34.6450 O.2   150  CYS150     -0.2717
    140  CB        13.2160   46.6010   35.7000 C.3   150  CYS150      0.0970
    141  SG        14.7410   45.9040   36.2860 S.3   150  CYS150     -0.0800
    142  N         12.4640   48.0400   32.9680 N.am  151  ILE151     -0.1965
    143  CA        11.4340   48.0880   31.9410 C.3   151  ILE151      0.1727
    144  C         11.5830   46.8340   31.1010 C.2   151  ILE151      0.2616
    145  O         12.5530   46.7080   30.3540 O.2   151  ILE151     -0.2715
    146  CB        11.5580   49.3390   31.0340 C.3   151  ILE151      0.0290
    147  CG1       11.4590   50.6260   31.8580 C.3   151  ILE151      0.0022
    148  CG2       10.4730   49.3250   29.9580 C.3   151  ILE151      0.0023
    149  CD1       11.8840   51.8890   31.1060 C.3   151  ILE151      0.0001
    150  N         10.6280   45.9130   31.2290 N.am  152  HIS152     -0.1973
    151  CA        10.6820   44.6260   30.5240 C.3   152  HIS152      0.1656
    152  C         10.6950   44.8090   29.0110 C.2   152  HIS152      0.2291
    153  O         11.4570   44.1490   28.3090 O.2   152  HIS152     -0.2864
    154  CB         9.5130   43.7250   30.9280 C.3   152  HIS152      0.0771
    155  CG         9.6540   42.3080   30.4610 C.ar  152  HIS152      0.0820
    156  ND1        9.5540   41.9450   29.1330 N.ar  152  HIS152     -0.2267
    157  CD2        9.8810   41.1630   31.1470 C.ar  152  HIS152      0.1154
    158  CE1        9.7210   40.6400   29.0210 C.ar  152  HIS152      0.1986
    159  NE2        9.9200   40.1410   30.2290 N.ar  152  HIS152     -0.2212
    160  N          6.6660   31.9990   32.5130 N.3   161  LEU161     -0.1245
    161  CA         6.9190   30.5750   32.7060 C.3   161  LEU161      0.1561
    162  C          6.1410   30.0230   33.8950 C.2   161  LEU161      0.2260
    163  O          5.9360   30.7280   34.8830 O.2   161  LEU161     -0.2867
    164  CB         8.4160   30.3230   32.8840 C.3   161  LEU161      0.0270
    165  CG         9.3250   30.5770   31.6730 C.3   161  LEU161      0.0019
    166  CD1       10.7380   30.8510   32.1510 C.3   161  LEU161      0.0001
    167  CD2        9.3120   29.4180   30.6690 C.3   161  LEU161      0.0001
    168  N          8.1520   35.7850   35.5750 N.3   170  ILE170     -0.1231
    169  CA         8.4490   36.7030   34.4870 C.3   170  ILE170      0.1692
    170  C          9.8620   36.4430   34.0140 C.2   170  ILE170      0.2592
    171  O         10.7880   36.3700   34.8210 O.2   170  ILE170     -0.2718
    172  CB         8.3290   38.1750   34.9370 C.3   170  ILE170      0.0266
    173  CG1        6.8750   38.5160   35.2690 C.3   170  ILE170      0.0019
    174  CG2        8.8650   39.1160   33.8550 C.3   170  ILE170      0.0020
    175  CD1        6.7210   39.6470   36.2500 C.3   170  ILE170      0.0001
    176  N         10.0250   36.2950   32.7070 N.am  171  CYS171     -0.1956
    177  CA        11.3420   36.0960   32.1240 C.3   171  CYS171      0.1843
    178  C         11.4340   36.8020   30.7760 C.2   171  CYS171      0.2625
    179  O         10.5200   37.5320   30.3860 O.2   171  CYS171     -0.2714
    180  CB        11.6190   34.6020   31.9580 C.3   171  CYS171      0.0997
    181  SG        10.6280   33.8690   30.6650 S.3   171  CYS171     -0.0797
    182  N         12.5380   36.5770   30.0690 N.am  172  ASP172     -0.1957
    183  CA        12.7080   37.1120   28.7250 C.3   172  ASP172      0.1840
    184  C         13.5340   36.1710   27.8520 C.2   172  ASP172      0.2622
    185  O         14.6920   35.8790   28.1580 O.2   172  ASP172     -0.2715
    186  CB        13.3370   38.5060   28.7730 C.3   172  ASP172      0.1450
    187  CG        13.1350   39.2820   27.4870 C.2   172  ASP172      0.3671
    188  OD1       12.1330   39.0340   26.7730 O.co2 172  ASP172     -0.2456
    189  OD2       13.9810   40.1530   27.1930 O.co2 172  ASP172     -0.2456
    190  N         12.9230   35.7040   26.7680 N.am  173  PHE173     -0.1974
    191  CA        13.5640   34.7600   25.8520 C.3   173  PHE173      0.1639
    192  C         14.3450   35.4260   24.7170 C.2   173  PHE173      0.2290
    193  O         14.3900   36.6520   24.6080 O.2   173  PHE173     -0.2864
    194  CB        12.5260   33.7970   25.2760 C.3   173  PHE173      0.0560
    195  CG        12.1880   32.6520   26.1900 C.ar  173  PHE173     -0.0200
    196  CD1       11.0150   32.6660   26.9400 C.ar  173  PHE173     -0.0042
    197  CD2       13.0420   31.5530   26.2980 C.ar  173  PHE173     -0.0042
    198  CE1       10.6930   31.6020   27.7860 C.ar  173  PHE173     -0.0003
    199  CE2       12.7300   30.4860   27.1390 C.ar  173  PHE173     -0.0003
    200  CZ        11.5520   30.5120   27.8850 C.ar  173  PHE173     -0.0000
@<TRIPOS>BOND
     1     4     3    2
     2     3     2    1
     3     1     2    1
     4   193   192    2
     5   192   191    1
     6     9    10    1
     7     2     5    1
     8   194   191    1
     9   194   195    1
    10    12    11    2
    11   191   190    1
    12    10    11    1
    13    10    13    1
    14   195   197   ar
    15   195   196   ar
    16    15    13    1
    17   197   199   ar
    18     5     6    1
    19    13    14    1
    20   190   184   am
    21   188   187   ar
    22   196   198   ar
    23   199   200   ar
    24   189   187   ar
    25    35    36    1
    26    35    34    1
    27   187   186    1
    28     6     8    1
    29     6     7    1
    30   198   200   ar
    31   184   185    2
    32   184   183    1
    33    33    34    1
    34    33    32    1
    35    44    43   ar
    36   153   152    2
    37    30    29    1
    38    30    31    2
    39   183   186    1
    40   183   182    1
    41    29    32    1
    42    29    28    1
    43    24    23    2
    44   152   151    1
    45   158   156   ar
    46   158   159   ar
    47   156   155   ar
    48    43    45   ar
    49    43    42    1
    50    23    28   am
    51    23    22    1
    52   148   146    1
    53   182   178   am
    54   126   125    1
    55   126   127    2
    56   125   124    1
    57   159   157   ar
    58   145   144    2
    59   179   178    2
    60   155   154    1
    61   155   157   ar
    62    41    42    1
    63    41    38    1
    64   151   154    1
    65   151   150    1
    66   181   180    1
    67   167   165    1
    68    26    25    1
    69   178   177    1
    70    25    22    1
    71    25    27    1
    72   146   147    1
    73   146   143    1
    74   144   150   am
    75   144   143    1
    76   149   147    1
    77    22    21    1
    78    37    38    1
    79    21    18   am
    80    38    39    1
    81   165   166    1
    82   165   164    1
    83   115   117   ar
    84   115   113   ar
    85    84    85    1
    86   143   142    1
    87   180   177    1
    88    90    88    1
    89   117   116   ar
    90   177   176    1
    91    20    17    1
    92    88    85    1
    93    88    89    1
    94    87    86    2
    95   160   161    1
    96    18    17    1
    97    18    19    2
    98    17    16    1
    99   161   164    1
   100   161   162    1
   101   176   170   am
   102    53    51    1
   103   113   112   ar
   104    85    86    1
   105    39    40    2
   106   142   138   am
   107   121   120    2
   108   116   114   ar
   109   174   172    1
   110   162   163    2
   111   170   169    1
   112   170   171    2
   113   112   114   ar
   114   112   111    1
   115    51    50    1
   116   138   139    2
   117   138   137    1
   118   169   172    1
   119   169   168    1
   120   120   119    1
   121    96    95    1
   122    50    52    1
   123    50    47    1
   124    60    59    1
   125   122   119    1
   126   122   123    1
   127   172   173    1
   128    82    81    1
   129   118   119    1
   130   118   109   am
   131    97    95    1
   132   137   140    1
   133   137   136    1
   134   173   175    1
   135   111   108    1
   136    83    81    1
   137    81    78    1
   138   108   109    1
   139   108   107    1
   140    91    92    1
   141   101   100    2
   142    95    92    1
   143   140   141    1
   144   134   133    1
   145    46    47    1
   146    59    61    1
   147    59    58    1
   148   109   110    2
   149    47    48    1
   150    94    93    2
   151    92    93    1
   152   100   107   am
   153   100    99    1
   154    54    48   am
   155    54    55    1
   156    93    98   am
   157    58    55    1
   158    48    49    2
   159    78    77    1
   160    78    79    1
   161   133   132    1
   162   133   135    1
   163    77    72   am
   164   132   129    1
   165    75    74    1
   166    55    56    1
   167    98    99    1
   168    80    79    2
   169    99   102    1
   170   131   130    2
   171   130   129    1
   172    72    71    1
   173    72    73    2
   174    71    74    1
   175    71    70    1
   176   103   102    1
   177   103   104    1
   178   129   128    1
   179    74    76    1
   180    69    67    1
   181    68    66    1
   182    56    57    2
   183   104   106   ar
   184   104   105   ar
   185    67    66    1
   186    66    63    1
   187    62    63    1
   188    63    64    1
   189    64    65    2
