@<TRIPOS>MOLECULE
tmp/3cpcB00.pdb
 179 167 0 0 0
SMALL
GASTEIGER

@<TRIPOS>ATOM
      1  N         25.9880   -0.7900   27.9190 N.3    21  LEU21      -0.1245
      2  CA        24.7590   -0.7040   27.1290 C.3    21  LEU21       0.1561
      3  C         24.6580   -1.8950   26.1730 C.2    21  LEU21       0.2260
      4  O         23.6030   -2.1390   25.5830 O.2    21  LEU21      -0.2867
      5  CB        24.7170    0.6110   26.3350 C.3    21  LEU21       0.0270
      6  CG        24.8580    1.9510   27.0710 C.3    21  LEU21       0.0019
      7  CD1       25.4100    3.0230   26.1380 C.3    21  LEU21       0.0001
      8  CD2       23.5370    2.4040   27.7080 C.3    21  LEU21       0.0001
      9  N         29.7930   -1.5720   24.1640 N.3    24  VAL24      -0.1245
     10  CA        29.3190   -0.1950   24.3040 C.3    24  VAL24       0.1561
     11  C         29.0100    0.1130   25.7680 C.2    24  VAL24       0.2260
     12  O         28.2640   -0.6170   26.4240 O.2    24  VAL24      -0.2867
     13  CB        28.0710    0.0960   23.4280 C.3    24  VAL24       0.0252
     14  CG1       27.7580    1.5930   23.4210 C.3    24  VAL24       0.0019
     15  CG2       28.2750   -0.4020   22.0060 C.3    24  VAL24       0.0019
     16  N         28.6160    7.7930   25.0910 N.3    42  ALA42      -0.1245
     17  CA        28.7070    6.3540   24.8710 C.3    42  ALA42       0.1562
     18  C         30.1060    6.0080   24.3860 C.2    42  ALA42       0.2260
     19  O         30.6930    6.7410   23.5970 O.2    42  ALA42      -0.2867
     20  CB        27.6610    5.8840   23.8780 C.3    42  ALA42       0.0290
     21  N         32.5750    2.8320   22.9000 N.3    44  LYS44      -0.1245
     22  CA        32.8060    1.4940   22.3800 C.3    44  LYS44       0.1561
     23  C         34.2660    1.1180   22.5980 C.2    44  LYS44       0.2260
     24  O         35.1720    1.8750   22.2480 O.2    44  LYS44      -0.2867
     25  CB        32.4210    1.3950   20.9000 C.3    44  LYS44       0.0271
     26  CG        32.4110   -0.0360   20.3700 C.3    44  LYS44       0.0035
     27  CD        32.0070   -0.1270   18.9050 C.3    44  LYS44       0.0206
     28  CE        30.4990   -0.2400   18.7320 C.3    44  LYS44       0.1093
     29  NZ        30.1450   -0.7590   17.3770 N.3    44  LYS44      -0.1314
     30  N         36.5660    1.4680   12.2680 N.3    58  GLU58      -0.1245
     31  CA        35.2630    1.9900   12.6630 C.3    58  GLU58       0.1567
     32  C         35.3490    3.4470   13.1250 C.2    58  GLU58       0.2260
     33  O         34.4280    4.2330   12.8930 O.2    58  GLU58      -0.2867
     34  CB        34.6910    1.1170   13.7730 C.3    58  GLU58       0.0388
     35  CG        33.2020    1.2050   13.9270 C.3    58  GLU58       0.1160
     36  CD        32.6080   -0.0620   14.5020 C.2    58  GLU58       0.3649
     37  OE1       32.6770   -1.1150   13.8330 O.co2  58  GLU58      -0.2457
     38  OE2       32.0600   -0.0030   15.6210 O.co2  58  GLU58      -0.2457
     39  N         36.2840    5.6450    9.7670 N.3    61  ILE61      -0.1231
     40  CA        35.1180    5.8280    8.9030 C.3    61  ILE61       0.1692
     41  C         34.1820    6.9000    9.4780 C.2    61  ILE61       0.2591
     42  O         33.6360    7.7100    8.7320 O.2    61  ILE61      -0.2718
     43  CB        34.3630    4.4950    8.6460 C.3    61  ILE61       0.0266
     44  CG1       35.2560    3.5080    7.8900 C.3    61  ILE61       0.0019
     45  CG2       33.0940    4.7370    7.8370 C.3    61  ILE61       0.0020
     46  CD1       34.7500    2.0750    7.9080 C.3    61  ILE61       0.0001
     47  N         34.0210    6.9070   10.8020 N.am   62  LEU62      -0.1980
     48  CA        33.2360    7.9340   11.4960 C.3    62  LEU62       0.1596
     49  C         33.7870    9.3540   11.3030 C.2    62  LEU62       0.2287
     50  O         33.0240   10.3220   11.2630 O.2    62  LEU62      -0.2864
     51  CB        33.1120    7.6070   12.9850 C.3    62  LEU62       0.0297
     52  CG        32.0110    6.6230   13.3910 C.3    62  LEU62       0.0022
     53  CD1       32.3050    6.0190   14.7590 C.3    62  LEU62       0.0001
     54  CD2       30.6350    7.2940   13.3800 C.3    62  LEU62       0.0001
     55  N         33.0420   10.1130    7.4290 N.3    65  ILE65      -0.1245
     56  CA        31.6210   10.3990    7.2200 C.3    65  ILE65       0.1561
     57  C         31.2660   11.8440    7.6000 C.2    65  ILE65       0.2260
     58  O         30.5030   12.5110    6.8950 O.2    65  ILE65      -0.2867
     59  CB        30.7340    9.3810    7.9930 C.3    65  ILE65       0.0252
     60  CG1       30.8510    7.9900    7.3590 C.3    65  ILE65       0.0019
     61  CG2       29.2720    9.8140    8.0260 C.3    65  ILE65       0.0019
     62  CD1       30.3240    6.8540    8.2280 C.3    65  ILE65       0.0001
     63  N         22.8170   10.5350   12.2530 N.3    71  VAL71      -0.1231
     64  CA        23.8740    9.5470   12.4330 C.3    71  VAL71       0.1692
     65  C         24.5270    9.8630   13.7710 C.2    71  VAL71       0.2591
     66  O         24.8850   11.0120   14.0250 O.2    71  VAL71      -0.2718
     67  CB        24.9200    9.6040   11.2830 C.3    71  VAL71       0.0266
     68  CG1       26.0520    8.6090   11.5090 C.3    71  VAL71       0.0020
     69  CG2       24.2640    9.3400    9.9410 C.3    71  VAL71       0.0020
     70  N         24.6570    8.8550   14.6330 N.am   72  VAL72      -0.1980
     71  CA        25.2340    9.0450   15.9720 C.3    72  VAL72       0.1595
     72  C         26.6270    9.7010   15.8810 C.2    72  VAL72       0.2287
     73  O         27.5420    9.1770   15.2330 O.2    72  VAL72      -0.2864
     74  CB        25.2200    7.7230   16.8130 C.3    72  VAL72       0.0276
     75  CG1       26.2680    6.7250   16.3240 C.3    72  VAL72       0.0022
     76  CG2       25.3960    8.0150   18.2990 C.3    72  VAL72       0.0022
     77  N         36.1950    4.4850   21.5240 N.3    87  VAL87      -0.1245
     78  CA        35.5310    5.3540   20.5530 C.3    87  VAL87       0.1561
     79  C         34.3340    6.0330   21.2220 C.2    87  VAL87       0.2260
     80  O         33.3990    5.3660   21.6730 O.2    87  VAL87      -0.2867
     81  CB        35.0880    4.5690   19.2890 C.3    87  VAL87       0.0252
     82  CG1       34.3770    5.4900   18.2990 C.3    87  VAL87       0.0019
     83  CG2       36.2860    3.9110   18.6190 C.3    87  VAL87       0.0019
     84  N         31.1000    8.6090   21.4100 N.3    89  THR89      -0.1203
     85  CA        30.0300    9.3040   20.7000 C.3    89  THR89       0.1994
     86  C         29.0710    9.9580   21.6850 C.2    89  THR89       0.2618
     87  O         29.1860    9.7750   22.8990 O.2    89  THR89      -0.2717
     88  CB        29.2010    8.3490   19.7870 C.3    89  THR89       0.1784
     89  OG1       28.3620    7.5070   20.5920 O.3    89  THR89      -0.2211
     90  CG2       30.1000    7.4960   18.8980 C.3    89  THR89       0.0376
     91  N         28.1200   10.7190   21.1470 N.am   90  GLU90      -0.1965
     92  CA        26.9950   11.2290   21.9160 C.3    90  GLU90       0.1733
     93  C         26.1730   10.0700   22.4810 C.2    90  GLU90       0.2616
     94  O         26.1350    8.9770   21.9030 O.2    90  GLU90      -0.2715
     95  CB        26.1150   12.1180   21.0330 C.3    90  GLU90       0.0429
     96  CG        25.5920   11.4380   19.7700 C.3    90  GLU90       0.1163
     97  CD        24.5340   12.2510   19.0460 C.2    90  GLU90       0.3649
     98  OE1       23.7220   12.9230   19.7190 O.co2  90  GLU90      -0.2457
     99  OE2       24.5060   12.2090   17.7980 O.co2  90  GLU90      -0.2457
    100  N         25.5260   10.3090   23.6130 N.am   91  PHE91      -0.1960
    101  CA        24.6680    9.3060   24.2240 C.3    91  PHE91       0.1771
    102  C         23.1980    9.6120   23.9440 C.2    91  PHE91       0.2619
    103  O         22.7230   10.7270   24.1880 O.2    91  PHE91      -0.2715
    104  CB        24.9360    9.2130   25.7300 C.3    91  PHE91       0.0574
    105  CG        24.0110    8.2820   26.4590 C.ar   91  PHE91      -0.0200
    106  CD1       24.0460    6.9090   26.2200 C.ar   91  PHE91      -0.0042
    107  CD2       23.1170    8.7750   27.4040 C.ar   91  PHE91      -0.0042
    108  CE1       23.1860    6.0400   26.8990 C.ar   91  PHE91      -0.0003
    109  CE2       22.2580    7.9150   28.0950 C.ar   91  PHE91      -0.0003
    110  CZ        22.2920    6.5470   27.8410 C.ar   91  PHE91      -0.0000
    111  N         22.4940    8.6190   23.4160 N.am   92  CYS92      -0.1968
    112  CA        21.0650    8.7290   23.1580 C.3    92  CYS92       0.1712
    113  C         20.3150    8.0820   24.3210 C.2    92  CYS92       0.2296
    114  O         20.3740    6.8640   24.5060 O.2    92  CYS92      -0.2864
    115  CB        20.7130    8.0790   21.8170 C.3    92  CYS92       0.0983
    116  SG        21.6950    8.6970   20.4040 S.3    92  CYS92      -0.0798
    117  N         17.3450    5.0530   24.1190 N.3    95  GLY95      -0.1225
    118  CA        17.7070    3.7090   23.6650 C.3    95  GLY95       0.1811
    119  C         17.2500    3.3990   22.2500 C.2    95  GLY95       0.2280
    120  O         16.9120    4.3090   21.4860 O.2    95  GLY95      -0.2866
    121  N         24.9250    8.6770    4.3230 N.3   134  LEU134     -0.1245
    122  CA        25.9300    7.6140    4.3470 C.3   134  LEU134      0.1561
    123  C         26.2510    7.0980    2.9430 C.2   134  LEU134      0.2260
    124  O         27.4070    6.8050    2.6380 O.2   134  LEU134     -0.2867
    125  CB        25.4850    6.4630    5.2590 C.3   134  LEU134      0.0270
    126  CG        25.4170    6.7550    6.7660 C.3   134  LEU134      0.0019
    127  CD1       24.8110    5.5790    7.5280 C.3   134  LEU134      0.0001
    128  CD2       26.7870    7.1030    7.3270 C.3   134  LEU134      0.0001
    129  N         25.8320    0.4030    5.5970 N.3   141  HIS141     -0.1241
    130  CA        25.6160    0.1030    7.0150 C.3   141  HIS141      0.1621
    131  C         25.7890   -1.3840    7.3250 C.2   141  HIS141      0.2264
    132  O         26.4550   -1.7420    8.3010 O.2   141  HIS141     -0.2867
    133  CB        24.2490    0.6000    7.4960 C.3   141  HIS141      0.0745
    134  CG        24.1050    0.6060    8.9870 C.ar  141  HIS141      0.0817
    135  ND1       23.7940   -0.5240    9.7110 N.ar  141  HIS141     -0.2268
    136  CD2       24.2420    1.6040    9.8920 C.ar  141  HIS141      0.1154
    137  CE1       23.7380   -0.2220   10.9960 C.ar  141  HIS141      0.1986
    138  NE2       24.0070    1.0630   11.1330 N.ar  141  HIS141     -0.2212
    139  N         18.6280    4.7430   17.2810 N.3   150  LEU150     -0.1245
    140  CA        18.5770    5.3020   18.6260 C.3   150  LEU150      0.1561
    141  C         17.7260    6.5540   18.6910 C.2   150  LEU150      0.2260
    142  O         17.7240    7.3580   17.7620 O.2   150  LEU150     -0.2867
    143  CB        19.9850    5.6290   19.1180 C.3   150  LEU150      0.0270
    144  CG        21.0420    4.5260   19.1070 C.3   150  LEU150      0.0019
    145  CD1       22.3930    5.1530   19.3850 C.3   150  LEU150      0.0001
    146  CD2       20.7390    3.4160   20.1120 C.3   150  LEU150      0.0001
    147  N         21.1100    6.9040   13.5010 N.3   159  ILE159     -0.1231
    148  CA        21.6610    5.6220   13.0800 C.3   159  ILE159      0.1692
    149  C         22.9110    5.2940   13.8990 C.2   159  ILE159      0.2592
    150  O         23.8100    6.1280   14.0380 O.2   159  ILE159     -0.2718
    151  CB        21.9960    5.6220   11.5620 C.3   159  ILE159      0.0266
    152  CG1       20.7130    5.7260   10.7330 C.3   159  ILE159      0.0019
    153  CG2       22.7860    4.3720   11.1700 C.3   159  ILE159      0.0020
    154  CD1       20.9290    6.2490    9.3280 C.3   159  ILE159      0.0001
    155  N         22.9460    4.0840   14.4480 N.am  160  CYS160     -0.1956
    156  CA        24.1150    3.5890   15.1680 C.3   160  CYS160      0.1843
    157  C         24.4860    2.1850   14.6980 C.2   160  CYS160      0.2625
    158  O         23.8470    1.6320   13.8030 O.2   160  CYS160     -0.2714
    159  CB        23.8610    3.5960   16.6790 C.3   160  CYS160      0.0997
    160  SG        22.9040    2.1930   17.3080 S.3   160  CYS160     -0.0797
    161  N         25.5270    1.6220   15.3020 N.am  161  ASP161     -0.1957
    162  CA        25.9210    0.2400   15.0490 C.3   161  ASP161      0.1840
    163  C         26.5300   -0.3510   16.3190 C.2   161  ASP161      0.2622
    164  O         27.6480    0.0010   16.7040 O.2   161  ASP161     -0.2715
    165  CB        26.9020    0.1620   13.8720 C.3   161  ASP161      0.1450
    166  CG        27.0750   -1.2550   13.3320 C.2   161  ASP161      0.3671
    167  OD1       26.4180   -2.2030   13.8270 O.co2 161  ASP161     -0.2456
    168  OD2       27.8810   -1.4180   12.3960 O.co2 161  ASP161     -0.2456
    169  N         25.7770   -1.2390   16.9680 N.am  162  PHE162     -0.1974
    170  CA        26.1980   -1.8710   18.2230 C.3   162  PHE162      0.1639
    171  C         27.3630   -2.8440   18.0180 C.2   162  PHE162      0.2290
    172  O         28.3970   -2.7350   18.6840 O.2   162  PHE162     -0.2864
    173  CB        25.0200   -2.5950   18.8920 C.3   162  PHE162      0.0560
    174  CG        24.1750   -1.7170   19.7770 C.ar  162  PHE162     -0.0200
    175  CD1       23.1160   -0.9920   19.2530 C.ar  162  PHE162     -0.0042
    176  CD2       24.4290   -1.6360   21.1430 C.ar  162  PHE162     -0.0042
    177  CE1       22.3270   -0.1860   20.0750 C.ar  162  PHE162     -0.0003
    178  CE2       23.6470   -0.8350   21.9750 C.ar  162  PHE162     -0.0003
    179  CZ        22.5950   -0.1100   21.4420 C.ar  162  PHE162     -0.0000
@<TRIPOS>BOND
     1   124   123    2
     2   123   122    1
     3   121   122    1
     4   122   125    1
     5   125   126    1
     6   129   130    1
     7   126   128    1
     8   126   127    1
     9    58    57    2
    10   130   131    1
    11   130   133    1
    12    56    55    1
    13    56    57    1
    14    56    59    1
    15   131   132    2
    16    60    59    1
    17    60    62    1
    18   133   134    1
    19    45    43    1
    20    44    46    1
    21    44    43    1
    22    59    61    1
    23    43    40    1
    24    42    41    2
    25    40    41    1
    26    40    39    1
    27   134   135   ar
    28   134   136   ar
    29   154   152    1
    30    41    47   am
    31   135   137   ar
    32   136   138   ar
    33    69    67    1
    34   152   151    1
    35    47    48    1
    36   137   138   ar
    37   153   151    1
    38    50    49    2
    39    67    68    1
    40    67    64    1
    41    49    48    1
    42    48    51    1
    43   151   148    1
    44    63    64    1
    45    30    31    1
    46   168   166   ar
    47    64    65    1
    48    31    32    1
    49    31    34    1
    50    33    32    2
    51    51    52    1
    52   148   147    1
    53   148   149    1
    54   166   167   ar
    55   166   165    1
    56    54    52    1
    57    52    53    1
    58    65    66    2
    59    65    70   am
    60    34    35    1
    61   158   157    2
    62    37    36   ar
    63   165   162    1
    64   149   150    2
    65   149   155   am
    66    35    36    1
    67   155   156    1
    68    36    38   ar
    69    70    71    1
    70   157   156    1
    71   157   161   am
    72   162   161    1
    73   162   163    1
    74   156   159    1
    75    73    72    2
    76    72    71    1
    77    71    74    1
    78   163   164    2
    79   163   169   am
    80    75    74    1
    81   159   160    1
    82    74    76    1
    83   169   170    1
    84   139   140    1
    85    29    28    1
    86   142   141    2
    87    99    97   ar
    88   171   170    1
    89   171   172    2
    90   170   173    1
    91    82    81    1
    92    83    81    1
    93   140   141    1
    94   140   143    1
    95    28    27    1
    96   173   174    1
    97    90    88    1
    98    27    26    1
    99    97    98   ar
   100    97    96    1
   101   144   143    1
   102   144   145    1
   103   144   146    1
   104   175   174   ar
   105   175   177   ar
   106    81    78    1
   107    96    95    1
   108   174   176   ar
   109    88    89    1
   110    88    85    1
   111   177   179   ar
   112    26    25    1
   113   116   115    1
   114    78    79    1
   115    78    77    1
   116    85    84    1
   117    85    86    1
   118    25    22    1
   119    95    92    1
   120   176   178   ar
   121    91    86   am
   122    91    92    1
   123    79    80    2
   124   179   178   ar
   125   120   119    2
   126    86    87    2
   127   115   112    1
   128    94    93    2
   129    92    93    1
   130    15    13    1
   131    24    23    2
   132   119   118    1
   133    22    23    1
   134    22    21    1
   135    93   100   am
   136   112   111    1
   137   112   113    1
   138   111   102   am
   139    14    13    1
   140    13    10    1
   141    19    18    2
   142   100   101    1
   143   118   117    1
   144    20    17    1
   145   102   103    2
   146   102   101    1
   147     9    10    1
   148   101   104    1
   149    10    11    1
   150   113   114    2
   151    18    17    1
   152    17    16    1
   153     4     3    2
   154   104   105    1
   155    11    12    2
   156     7     6    1
   157     3     2    1
   158   106   105   ar
   159   106   108   ar
   160     5     6    1
   161     5     2    1
   162   105   107   ar
   163   108   110   ar
   164     6     8    1
   165     2     1    1
   166   107   109   ar
   167   110   109   ar
