@<TRIPOS>MOLECULE
tmp/3cpcA00.pdb
 179 167 0 0 0
SMALL
GASTEIGER

@<TRIPOS>ATOM
      1  N         15.3880   24.9360   24.8370 N.3    21  LEU21      -0.1245
      2  CA        14.0300   25.3460   25.1890 C.3    21  LEU21       0.1561
      3  C         13.5090   26.4430   24.2610 C.2    21  LEU21       0.2260
      4  O         14.2290   27.3900   23.9340 O.2    21  LEU21      -0.2867
      5  CB        13.9700   25.8150   26.6500 C.3    21  LEU21       0.0270
      6  CG        14.3150   24.8110   27.7630 C.3    21  LEU21       0.0019
      7  CD1       14.7290   25.5370   29.0380 C.3    21  LEU21       0.0001
      8  CD2       13.1620   23.8470   28.0380 C.3    21  LEU21       0.0001
      9  N         18.3730   29.2350   25.2690 N.3    23  VAL23      -0.1245
     10  CA        17.9760   28.7470   26.5880 C.3    23  VAL23       0.1561
     11  C         17.8860   27.2220   26.5520 C.2    23  VAL23       0.2260
     12  O         17.1570   26.6510   25.7440 O.2    23  VAL23      -0.2867
     13  CB        16.6410   29.3640   27.0810 C.3    23  VAL23       0.0252
     14  CG1       16.4080   29.0250   28.5490 C.3    23  VAL23       0.0019
     15  CG2       16.6380   30.8750   26.8880 C.3    23  VAL23       0.0019
     16  N         17.5350   25.8500   34.1760 N.3    41  ALA41      -0.1245
     17  CA        17.5780   26.4330   32.8380 C.3    41  ALA41       0.1562
     18  C         18.8270   27.2960   32.6860 C.2    41  ALA41       0.2260
     19  O         19.2030   28.0310   33.5980 O.2    41  ALA41      -0.2867
     20  CB        16.3180   27.2400   32.5490 C.3    41  ALA41       0.0290
     21  N         20.8300   30.0580   30.1740 N.3    43  LYS43      -0.1245
     22  CA        20.9590   30.9430   29.0240 C.3    43  LYS43       0.1561
     23  C         22.4380   31.1600   28.7210 C.2    43  LYS43       0.2260
     24  O         23.2170   31.5210   29.6060 O.2    43  LYS43      -0.2867
     25  CB        20.2390   32.2810   29.2510 C.3    43  LYS43       0.0271
     26  CG        20.1140   33.1290   27.9810 C.3    43  LYS43       0.0035
     27  CD        19.3240   34.4160   28.1850 C.3    43  LYS43       0.0206
     28  CE        17.8250   34.1610   28.2690 C.3    43  LYS43       0.1093
     29  NZ        17.0510   35.3930   27.9690 N.3    43  LYS43      -0.1314
     30  N         22.7870   41.6060   31.7340 N.3    60  GLU60      -0.1245
     31  CA        21.5160   40.9810   32.0810 C.3    60  GLU60       0.1567
     32  C         21.6380   40.1590   33.3630 C.2    60  GLU60       0.2260
     33  O         20.7170   40.1340   34.1850 O.2    60  GLU60      -0.2867
     34  CB        21.0640   40.0850   30.9380 C.3    60  GLU60       0.0388
     35  CG        19.6160   39.6780   30.9930 C.3    60  GLU60       0.1160
     36  CD        19.2920   38.6360   29.9510 C.2    60  GLU60       0.3649
     37  OE1       18.7030   38.9960   28.9090 O.co2  60  GLU60      -0.2457
     38  OE2       19.6430   37.4570   30.1680 O.co2  60  GLU60      -0.2457
     39  N         21.9320   42.6010   36.3360 N.3    63  ILE63      -0.1231
     40  CA        20.6010   43.1560   36.5650 C.3    63  ILE63       0.1692
     41  C         19.7210   42.1750   37.3450 C.2    63  ILE63       0.2591
     42  O         18.9970   42.5810   38.2550 O.2    63  ILE63      -0.2718
     43  CB        19.9450   43.6280   35.2290 C.3    63  ILE63       0.0266
     44  CG1       20.5600   44.9640   34.7910 C.3    63  ILE63       0.0019
     45  CG2       18.4480   43.7850   35.3750 C.3    63  ILE63       0.0020
     46  CD1       20.3570   45.3220   33.3310 C.3    63  ILE63       0.0001
     47  N         19.8090   40.8880   37.0130 N.am   64  LEU64      -0.1980
     48  CA        19.0940   39.8500   37.7640 C.3    64  LEU64       0.1596
     49  C         19.5830   39.7160   39.2130 C.2    64  LEU64       0.2287
     50  O         18.7920   39.4220   40.1150 O.2    64  LEU64      -0.2864
     51  CB        19.1740   38.4990   37.0410 C.3    64  LEU64       0.0297
     52  CG        18.2700   38.2890   35.8200 C.3    64  LEU64       0.0022
     53  CD1       18.6960   37.0600   35.0250 C.3    64  LEU64       0.0001
     54  CD2       16.8080   38.1760   36.2370 C.3    64  LEU64       0.0001
     55  N         18.3750   43.0980   40.9380 N.3    67  ILE67      -0.1245
     56  CA        16.9310   42.9580   41.1450 C.3    67  ILE67       0.1561
     57  C         16.6230   42.2030   42.4440 C.2    67  ILE67       0.2260
     58  O         15.8050   42.6500   43.2520 O.2    67  ILE67      -0.2867
     59  CB        16.2580   42.2790   39.9010 C.3    67  ILE67       0.0252
     60  CG1       16.0560   43.3000   38.7750 C.3    67  ILE67       0.0019
     61  CG2       14.9270   41.6210   40.2470 C.3    67  ILE67       0.0019
     62  CD1       15.7330   42.6720   37.4200 C.3    67  ILE67       0.0001
     63  N          9.1720   36.0080   39.7660 N.3    73  VAL73      -0.1231
     64  CA        10.1920   36.2960   38.7610 C.3    73  VAL73       0.1692
     65  C         11.1180   35.0890   38.7290 C.2    73  VAL73       0.2591
     66  O         11.5690   34.6360   39.7740 O.2    73  VAL73      -0.2718
     67  CB        10.9790   37.5890   39.1080 C.3    73  VAL73       0.0266
     68  CG1       12.0960   37.8390   38.1100 C.3    73  VAL73       0.0020
     69  CG2       10.0400   38.7960   39.1550 C.3    73  VAL73       0.0020
     70  N         11.3840   34.5480   37.5410 N.am   74  VAL74      -0.1980
     71  CA        12.2050   33.3390   37.4350 C.3    74  VAL74       0.1595
     72  C         13.5070   33.5170   38.2480 C.2    74  VAL74       0.2287
     73  O         14.2260   34.5070   38.0770 O.2    74  VAL74      -0.2864
     74  CB        12.4350   32.9140   35.9480 C.3    74  VAL74       0.0276
     75  CG1       13.4200   33.8490   35.2300 C.3    74  VAL74       0.0022
     76  CG2       12.8800   31.4560   35.8600 C.3    74  VAL74       0.0022
     77  N         24.1810   31.7470   32.2900 N.3    89  VAL89      -0.1245
     78  CA        23.3140   32.2930   33.3340 C.3    89  VAL89       0.1561
     79  C         22.2930   31.2110   33.7020 C.2    89  VAL89       0.2260
     80  O         21.5430   30.7350   32.8490 O.2    89  VAL89      -0.2867
     81  CB        22.6160   33.6150   32.8750 C.3    89  VAL89       0.0252
     82  CG1       21.7060   34.1670   33.9640 C.3    89  VAL89       0.0019
     83  CG2       23.6530   34.6640   32.4740 C.3    89  VAL89       0.0019
     84  N         19.1390   29.6590   35.9480 N.3    91  THR91      -0.1203
     85  CA        17.9490   29.9300   36.7510 C.3    91  THR91       0.1994
     86  C         17.2610   28.6260   37.1280 C.2    91  THR91       0.2618
     87  O         17.6960   27.5480   36.7210 O.2    91  THR91      -0.2717
     88  CB        16.9230   30.8340   36.0150 C.3    91  THR91       0.1784
     89  OG1       16.3180   30.1060   34.9380 O.3    91  THR91      -0.2211
     90  CG2       17.5810   32.1140   35.4860 C.3    91  THR91       0.0376
     91  N         16.1820   28.7280   37.9000 N.am   92  GLU92      -0.1965
     92  CA        15.3220   27.5770   38.1630 C.3    92  GLU92       0.1733
     93  C         14.6600   27.1010   36.8690 C.2    92  GLU92       0.2616
     94  O         14.5650   27.8510   35.8950 O.2    92  GLU92      -0.2715
     95  CB        14.2690   27.9120   39.2230 C.3    92  GLU92       0.0429
     96  CG        13.3310   29.0560   38.8570 C.3    92  GLU92       0.1163
     97  CD        12.2430   29.2680   39.8910 C.2    92  GLU92       0.3649
     98  OE1       11.7130   28.2670   40.4280 O.co2  92  GLU92      -0.2457
     99  OE2       11.9110   30.4410   40.1650 O.co2  92  GLU92      -0.2457
    100  N         14.2260   25.8470   36.8570 N.am   93  PHE93      -0.1960
    101  CA        13.5470   25.2920   35.6930 C.3    93  PHE93       0.1771
    102  C         12.0590   25.1480   35.9740 C.2    93  PHE93       0.2619
    103  O         11.6600   24.5410   36.9710 O.2    93  PHE93      -0.2715
    104  CB        14.1620   23.9470   35.2820 C.3    93  PHE93       0.0574
    105  CG        13.4590   23.2720   34.1290 C.ar   93  PHE93      -0.0200
    106  CD1       13.3880   23.8800   32.8780 C.ar   93  PHE93      -0.0042
    107  CD2       12.8840   22.0140   34.2940 C.ar   93  PHE93      -0.0042
    108  CE1       12.7410   23.2580   31.8150 C.ar   93  PHE93      -0.0003
    109  CE2       12.2440   21.3740   33.2330 C.ar   93  PHE93      -0.0003
    110  CZ        12.1680   22.0020   31.9910 C.ar   93  PHE93      -0.0000
    111  N         11.2500   25.7340   35.0950 N.am   94  CYS94      -0.1968
    112  CA         9.8020   25.5970   35.1550 C.3    94  CYS94       0.1712
    113  C          9.3790   24.5800   34.1070 C.2    94  CYS94       0.2296
    114  O          9.3140   24.8860   32.9130 O.2    94  CYS94      -0.2864
    115  CB         9.1270   26.9500   34.9320 C.3    94  CYS94       0.0983
    116  SG         9.6600   28.2180   36.1130 S.3    94  CYS94      -0.0798
    117  N          6.3640   24.7810   31.3470 N.3    97  GLY97      -0.1225
    118  CA         6.5390   25.6730   30.1980 C.3    97  GLY97       0.1811
    119  C          5.7710   26.9790   30.3100 C.2    97  GLY97       0.2280
    120  O          5.3780   27.3850   31.4030 O.2    97  GLY97      -0.2866
    121  N          9.3620   44.4070   39.8750 N.3   144  LEU144     -0.1245
    122  CA        10.2870   44.8760   38.8480 C.3   144  LEU144      0.1561
    123  C         10.2340   46.3990   38.6710 C.2   144  LEU144      0.2260
    124  O         11.2780   47.0540   38.6500 O.2   144  LEU144     -0.2867
    125  CB        10.0450   44.1470   37.5170 C.3   144  LEU144      0.0270
    126  CG        10.4360   42.6650   37.4480 C.3   144  LEU144      0.0019
    127  CD1        9.9710   42.0380   36.1360 C.3   144  LEU144      0.0001
    128  CD2       11.9450   42.4570   37.6370 C.3   144  LEU144      0.0001
    129  N         10.2430   45.5660   31.4830 N.3   151  HIS151     -0.1241
    130  CA        10.3460   44.2360   30.8660 C.3   151  HIS151      0.1621
    131  C         10.4580   44.2920   29.3420 C.2   151  HIS151      0.2264
    132  O         11.2720   43.5780   28.7570 O.2   151  HIS151     -0.2867
    133  CB         9.1890   43.3190   31.2860 C.3   151  HIS151      0.0745
    134  CG         9.3890   41.8840   30.8970 C.ar  151  HIS151      0.0817
    135  ND1        9.1630   41.4190   29.6190 N.ar  151  HIS151     -0.2268
    136  CD2        9.8070   40.8150   31.6160 C.ar  151  HIS151      0.1154
    137  CE1        9.4270   40.1250   29.5690 C.ar  151  HIS151      0.1986
    138  NE2        9.8200   39.7340   30.7680 N.ar  151  HIS151     -0.2212
    139  N          5.9210   31.6890   32.9560 N.3   160  LEU160     -0.1245
    140  CA         6.1810   30.2680   33.1450 C.3   160  LEU160      0.1561
    141  C          5.3250   29.6950   34.2520 C.2   160  LEU160      0.2260
    142  O          5.1200   30.3410   35.2770 O.2   160  LEU160     -0.2867
    143  CB         7.6540   30.0360   33.4840 C.3   160  LEU160      0.0270
    144  CG         8.7130   30.5500   32.5110 C.3   160  LEU160      0.0019
    145  CD1       10.0900   30.4220   33.1420 C.3   160  LEU160      0.0001
    146  CD2        8.6540   29.8240   31.1680 C.3   160  LEU160      0.0001
    147  N          7.6650   35.2940   35.8530 N.3   169  ILE169     -0.1231
    148  CA         8.0560   36.1380   34.7400 C.3   169  ILE169      0.1692
    149  C          9.4480   35.7300   34.2590 C.2   169  ILE169      0.2592
    150  O         10.3970   35.6530   35.0480 O.2   169  ILE169     -0.2718
    151  CB         8.0270   37.6300   35.1420 C.3   169  ILE169      0.0266
    152  CG1        6.6100   38.0260   35.5800 C.3   169  ILE169      0.0019
    153  CG2        8.5270   38.5120   33.9970 C.3   169  ILE169      0.0020
    154  CD1        6.5370   39.2620   36.4350 C.3   169  ILE169      0.0001
    155  N          9.5480   35.4460   32.9650 N.am  170  CYS170     -0.1956
    156  CA        10.8230   35.1520   32.3360 C.3   170  CYS170      0.1843
    157  C         11.0150   36.0490   31.1160 C.2   170  CYS170      0.2625
    158  O         10.1830   36.9180   30.8390 O.2   170  CYS170     -0.2714
    159  CB        10.9040   33.6740   31.9470 C.3   170  CYS170      0.0997
    160  SG        10.0240   33.2400   30.4270 S.3   170  CYS170     -0.0797
    161  N         12.1170   35.8430   30.4020 N.am  171  ASP171     -0.1957
    162  CA        12.4020   36.5840   29.1810 C.3   171  ASP171      0.1840
    163  C         13.1150   35.6650   28.1900 C.2   171  ASP171      0.2622
    164  O         14.3380   35.5310   28.2260 O.2   171  ASP171     -0.2715
    165  CB        13.2490   37.8230   29.4920 C.3   171  ASP171      0.1450
    166  CG        13.1150   38.9160   28.4390 C.2   171  ASP171      0.3671
    167  OD1       12.6100   38.6450   27.3280 O.co2 171  ASP171     -0.2456
    168  OD2       13.5220   40.0620   28.7300 O.co2 171  ASP171     -0.2456
    169  N         12.3310   35.0130   27.3310 N.am  172  PHE172     -0.1974
    170  CA        12.8610   34.1140   26.3030 C.3   172  PHE172      0.1639
    171  C         13.6700   34.8760   25.2610 C.2   172  PHE172      0.2290
    172  O         14.8800   35.0410   25.4090 O.2   172  PHE172     -0.2864
    173  CB        11.7310   33.3470   25.6110 C.3   172  PHE172      0.0560
    174  CG        11.4120   32.0190   26.2450 C.ar  172  PHE172     -0.0200
    175  CD1       10.3280   31.8890   27.1130 C.ar  172  PHE172     -0.0042
    176  CD2       12.1830   30.8930   25.9620 C.ar  172  PHE172     -0.0042
    177  CE1       10.0190   30.6560   27.6990 C.ar  172  PHE172     -0.0003
    178  CE2       11.8840   29.6530   26.5440 C.ar  172  PHE172     -0.0003
    179  CZ        10.8000   29.5340   27.4140 C.ar  172  PHE172     -0.0000
@<TRIPOS>BOND
     1     4     3    2
     2     3     2    1
     3     1     2    1
     4     2     5    1
     5   171   172    2
     6   171   170    1
     7     9    10    1
     8   173   174    1
     9   173   170    1
    10    12    11    2
    11   176   174   ar
    12   176   178   ar
    13   174   175   ar
    14   170   169    1
    15   178   179   ar
    16    11    10    1
    17    10    13    1
    18     5     6    1
    19    15    13    1
    20    13    14    1
    21   175   177   ar
    22   167   166   ar
    23   169   163   am
    24   179   177   ar
    25     6     8    1
    26     6     7    1
    27    29    28    1
    28    26    27    1
    29    26    25    1
    30    27    28    1
    31   163   164    2
    32   163   162    1
    33   166   168   ar
    34   166   165    1
    35    23    22    1
    36    23    24    2
    37   132   131    2
    38    37    36   ar
    39    22    25    1
    40    22    21    1
    41   162   165    1
    42   162   161    1
    43   131   130    1
    44   137   135   ar
    45   137   138   ar
    46   135   134   ar
    47    36    38   ar
    48    36    35    1
    49   118   119    1
    50   118   117    1
    51   119   120    2
    52   161   157   am
    53   160   159    1
    54   138   136   ar
    55   158   157    2
    56   130   133    1
    57   130   129    1
    58   134   133    1
    59   134   136   ar
    60    34    35    1
    61    34    31    1
    62   157   156    1
    63   146   144    1
    64    30    31    1
    65   108   110   ar
    66   108   106   ar
    67   159   156    1
    68   110   109   ar
    69    31    32    1
    70    77    78    1
    71   156   155    1
    72    83    81    1
    73   144   145    1
    74   144   143    1
    75    20    17    1
    76    18    17    1
    77    18    19    2
    78    17    16    1
    79    80    79    2
    80    81    78    1
    81    81    82    1
    82   106   105   ar
    83   114   113    2
    84   139   140    1
    85   155   149   am
    86   140   143    1
    87   140   141    1
    88   109   107   ar
    89    46    44    1
    90    78    79    1
    91    32    33    2
    92   153   151    1
    93   113   112    1
    94   105   107   ar
    95   105   104    1
    96   141   142    2
    97   149   148    1
    98   149   150    2
    99   148   151    1
   100   148   147    1
   101    44    43    1
   102   115   112    1
   103   115   116    1
   104    89    88    1
   105    53    52    1
   106   111   112    1
   107   111   102   am
   108   151   152    1
   109    43    45    1
   110    43    40    1
   111    75    74    1
   112   104   101    1
   113    90    88    1
   114   152   154    1
   115   101   102    1
   116   101   100    1
   117    52    54    1
   118    52    51    1
   119    76    74    1
   120    94    93    2
   121    84    85    1
   122    74    71    1
   123   102   103    2
   124    88    85    1
   125   127   126    1
   126    39    40    1
   127    40    41    1
   128    87    86    2
   129    85    86    1
   130   100    93   am
   131    93    92    1
   132    47    41   am
   133    47    48    1
   134    51    48    1
   135    86    91   am
   136    41    42    2
   137    62    60    1
   138    71    70    1
   139    71    72    1
   140   126   125    1
   141   126   128    1
   142   125   122    1
   143    70    65   am
   144    48    49    1
   145    91    92    1
   146    73    72    2
   147    68    67    1
   148    92    95    1
   149   124   123    2
   150   123   122    1
   151    65    64    1
   152    65    66    2
   153    64    67    1
   154    64    63    1
   155    60    59    1
   156   122   121    1
   157    96    95    1
   158    96    97    1
   159    67    69    1
   160    49    50    2
   161    97    99   ar
   162    97    98   ar
   163    59    61    1
   164    59    56    1
   165    55    56    1
   166    56    57    1
   167    57    58    2
