@<TRIPOS>MOLECULE
tmp/3cphB00.pdb
 170 165 0 0 0
SMALL
GASTEIGER

@<TRIPOS>ATOM
      1  N         50.0730   18.7830    8.4930 N.3    10  SER10      -0.1202
      2  CA        51.1190   18.7590    7.4700 C.3    10  SER10       0.2020
      3  C         51.4320   20.1660    7.0110 C.2    10  SER10       0.2619
      4  O         50.5290   21.0080    6.9060 O.2    10  SER10      -0.2717
      5  CB        50.6930   17.9520    6.2540 C.3    10  SER10       0.2103
      6  OG        50.3950   16.6290    6.6340 O.3    10  SER10      -0.2182
      7  N         52.7110   20.4090    6.7370 N.am   11  GLY11      -0.1942
      8  CA        53.1680   21.7030    6.2660 C.3    11  GLY11       0.2014
      9  C         53.6120   22.6930    7.3260 C.2    11  GLY11       0.2639
     10  O         54.1450   23.7350    6.9820 O.2    11  GLY11      -0.2714
     11  N         53.4150   22.4080    8.6080 N.am   12  VAL12      -0.1963
     12  CA        53.7250   23.4160    9.6200 C.3    12  VAL12       0.1727
     13  C         55.2210   23.5810    9.8690 C.2    12  VAL12       0.2617
     14  O         55.6470   24.6170   10.3650 O.2    12  VAL12      -0.2715
     15  CB        52.9900   23.1700   10.9580 C.3    12  VAL12       0.0290
     16  CG1       51.4860   23.1830   10.7400 C.3    12  VAL12       0.0023
     17  CG2       53.4650   21.8830   11.6210 C.3    12  VAL12       0.0023
     18  N         56.0140   22.5730    9.5230 N.am   13  GLY13      -0.1940
     19  CA        57.4780   22.6420    9.6680 C.3    13  GLY13       0.2014
     20  C         58.0900   21.7400   10.7330 C.2    13  GLY13       0.2639
     21  O         59.2000   21.9940   11.2030 O.2    13  GLY13      -0.2714
     22  N         57.3860   20.6700   11.0940 N.am   14  LYS14      -0.1963
     23  CA        57.8450   19.7580   12.1420 C.3    14  LYS14       0.1728
     24  C         59.1940   19.1240   11.7850 C.2    14  LYS14       0.2617
     25  O         60.1010   19.0520   12.6080 O.2    14  LYS14      -0.2715
     26  CB        56.8060   18.6630   12.3890 C.3    14  LYS14       0.0311
     27  CG        55.4280   19.1750   12.8070 C.3    14  LYS14       0.0038
     28  CD        54.3790   18.0620   12.9150 C.3    14  LYS14       0.0206
     29  CE        54.0690   17.3960   11.5790 C.3    14  LYS14       0.1093
     30  NZ        53.3350   18.2970   10.6530 N.3    14  LYS14      -0.1314
     31  N         59.3300   18.6750   10.5470 N.am   15  SER15      -0.1936
     32  CA        60.5550   18.0140   10.1170 C.3    15  SER15       0.2055
     33  C         61.7290   19.0060    9.9900 C.2    15  SER15       0.2643
     34  O         62.8760   18.6600   10.2720 O.2    15  SER15      -0.2714
     35  CB        60.2960   17.2310    8.8240 C.3    15  SER15       0.2130
     36  OG        59.2100   16.3190    8.9990 O.3    15  SER15      -0.2179
     37  N         61.4480   20.2490    9.6190 N.am   16  CYS16      -0.1967
     38  CA        62.5020   21.2790    9.5760 C.3    16  CYS16       0.1712
     39  C         63.0730   21.6390   10.9330 C.2    16  CYS16       0.2296
     40  O         64.2910   21.7320   11.0820 O.2    16  CYS16      -0.2864
     41  CB        61.9780   22.5480    8.9310 C.3    16  CYS16       0.0983
     42  SG        61.7190   22.3130    7.1950 S.3    16  CYS16      -0.0798
     43  N         68.5870   23.7870    7.0810 N.3    26  PHE26      -0.1227
     44  CA        67.2510   24.0750    6.6060 C.3    26  PHE26       0.1736
     45  C         67.2260   23.8590    5.1120 C.2    26  PHE26       0.2595
     46  O         68.1190   24.3020    4.4020 O.2    26  PHE26      -0.2718
     47  CB        66.8570   25.5040    6.9400 C.3    26  PHE26       0.0547
     48  CG        65.4850   25.8690    6.4840 C.ar   26  PHE26      -0.0202
     49  CD1       64.3750   25.3470    7.1190 C.ar   26  PHE26      -0.0042
     50  CD2       65.2990   26.7360    5.4230 C.ar   26  PHE26      -0.0042
     51  CE1       63.0980   25.6830    6.7020 C.ar   26  PHE26      -0.0003
     52  CE2       64.0310   27.0730    5.0000 C.ar   26  PHE26      -0.0003
     53  CZ        62.9260   26.5460    5.6410 C.ar   26  PHE26      -0.0000
     54  N         66.2070   23.1480    4.6500 N.am   27  ASN27      -0.1961
     55  CA        65.9880   22.9140    3.2360 C.3    27  ASN27       0.1804
     56  C         64.7040   23.6230    2.8140 C.2    27  ASN27       0.2463
     57  O         63.6100   23.1370    3.1080 O.2    27  ASN27      -0.2730
     58  CB        65.8730   21.4120    2.9730 C.3    27  ASN27       0.1195
     59  CG        65.4640   21.1020    1.5490 C.2    27  ASN27       0.2630
     60  OD1       65.8250   21.8390    0.6210 O.2    27  ASN27      -0.2716
     61  ND2       64.7060   20.0100    1.3610 N.am   27  ASN27      -0.0877
     62  N         64.8260   24.7880    2.1420 N.am   28  PRO28      -0.2727
     63  CA        63.6370   25.5430    1.6690 C.3    28  PRO28       0.1402
     64  C         62.7670   24.8740    0.5830 C.2    28  PRO28       0.2269
     65  O         61.7350   25.4380    0.2090 O.2    28  PRO28      -0.2865
     66  CB        64.2430   26.8380    1.0960 C.3    28  PRO28       0.0296
     67  CG        65.6630   26.9080    1.6180 C.3    28  PRO28       0.0237
     68  CD        66.0890   25.4910    1.8300 C.3    28  PRO28       0.0939
     69  N         60.3010   23.3360   -0.6040 N.3    30  PHE30      -0.1227
     70  CA        58.8300   23.1240   -0.8230 C.3    30  PHE30       0.1736
     71  C         58.3570   21.6510   -0.7270 C.2    30  PHE30       0.2595
     72  O         57.2030   21.3930   -0.3510 O.2    30  PHE30      -0.2718
     73  CB        58.3320   23.7520   -2.1500 C.3    30  PHE30       0.0547
     74  CG        57.8410   25.1810   -2.0110 C.ar   30  PHE30      -0.0202
     75  CD1       58.7480   26.2430   -1.8840 C.ar   30  PHE30      -0.0042
     76  CD2       56.4700   25.4670   -2.0190 C.ar   30  PHE30      -0.0042
     77  CE1       58.2980   27.5680   -1.7590 C.ar   30  PHE30      -0.0003
     78  CE2       56.0070   26.7900   -1.8960 C.ar   30  PHE30      -0.0003
     79  CZ        56.9250   27.8410   -1.7670 C.ar   30  PHE30      -0.0000
     80  N         59.2300   20.7000   -1.0820 N.am   31  ILE31      -0.1966
     81  CA        58.9970   19.2750   -0.8020 C.3    31  ILE31       0.1727
     82  C         58.8410   19.0290    0.7090 C.2    31  ILE31       0.2617
     83  O         59.2500   19.8630    1.5350 O.2    31  ILE31      -0.2715
     84  CB        60.1530   18.3590   -1.3410 C.3    31  ILE31       0.0290
     85  CG1       61.5090   18.7160   -0.6950 C.3    31  ILE31       0.0022
     86  CG2       60.2250   18.4270   -2.8700 C.3    31  ILE31       0.0023
     87  CD1       62.6380   17.6990   -0.9810 C.3    31  ILE31       0.0001
     88  N         58.2210   17.9010    1.0610 N.am   32  THR32      -0.1937
     89  CA        58.3980   17.3280    2.3970 C.3    32  THR32       0.2028
     90  C         59.8180   16.7420    2.4130 C.2    32  THR32       0.2642
     91  O         60.3150   16.2780    1.3680 O.2    32  THR32      -0.2714
     92  CB        57.3560   16.1940    2.7340 C.3    32  THR32       0.1808
     93  OG1       56.0130   16.6610    2.5220 O.3    32  THR32      -0.2208
     94  CG2       57.5100   15.7110    4.2050 C.3    32  THR32       0.0379
     95  N         60.4900   16.7940    3.5660 N.am   33  THR33      -0.1950
     96  CA        61.6940   15.9810    3.7500 C.3    33  THR33       0.1897
     97  C         61.1930   14.5800    4.1020 C.2    33  THR33       0.2313
     98  O         60.3530   14.4170    5.0040 O.2    33  THR33      -0.2863
     99  CB        62.6530   16.5040    4.8550 C.3    33  THR33       0.1794
    100  OG1       62.8590   17.9150    4.7020 O.3    33  THR33      -0.2208
    101  CG2       64.0090   15.7810    4.7780 C.3    33  THR33       0.0378
    102  N         57.0390   12.1380   12.3530 N.3    57  THR57      -0.1218
    103  CA        55.7680   11.5230   11.9940 C.3    57  THR57       0.1862
    104  C         55.8030   10.8260   10.6330 C.2    57  THR57       0.2287
    105  O         54.9060   10.0500   10.3240 O.2    57  THR57      -0.2866
    106  CB        54.6400   12.5550   11.9330 C.3    57  THR57       0.1770
    107  OG1       54.9820   13.5630   10.9800 O.3    57  THR57      -0.2211
    108  CG2       54.3900   13.1920   13.3050 C.3    57  THR57       0.0375
    109  N         50.5380   12.0320    9.6770 N.3    61  GLU61      -0.1245
    110  CA        49.5560   13.0220   10.1370 C.3    61  GLU61       0.1567
    111  C         48.6940   13.5370    8.9980 C.2    61  GLU61       0.2260
    112  O         47.6030   14.0630    9.2180 O.2    61  GLU61      -0.2867
    113  CB        50.2450   14.2190   10.8130 C.3    61  GLU61       0.0388
    114  CG        51.0440   15.1750    9.8690 C.3    61  GLU61       0.1160
    115  CD        52.4600   14.6950    9.5490 C.2    61  GLU61       0.3649
    116  OE1       52.7450   13.4830    9.6900 O.co2  61  GLU61      -0.2457
    117  OE2       53.2940   15.5360    9.1470 O.co2  61  GLU61      -0.2457
    118  N         55.2790   28.0570   14.4770 N.3   114  ASN114     -0.1225
    119  CA        56.4210   28.0350   13.5610 C.3   114  ASN114      0.1785
    120  C         56.2760   29.0050   12.3860 C.2   114  ASN114      0.2597
    121  O         55.1710   29.4660   12.0580 O.2   114  ASN114     -0.2718
    122  CB        56.6280   26.6180   13.0290 C.3   114  ASN114      0.1169
    123  CG        58.0080   26.3990   12.4350 C.2   114  ASN114      0.2627
    124  OD1       59.0260   26.8000   13.0080 O.2   114  ASN114     -0.2716
    125  ND2       58.0480   25.7480   11.2810 N.am  114  ASN114     -0.0877
    126  N         57.4130   29.3010   11.7630 N.am  115  LYS115     -0.1980
    127  CA        57.4980   30.2280   10.6460 C.3   115  LYS115      0.1596
    128  C         57.2020   31.6490   11.1290 C.2   115  LYS115      0.2287
    129  O         56.4620   32.3970   10.4910 O.2   115  LYS115     -0.2864
    130  CB        56.5630   29.8110    9.5010 C.3   115  LYS115      0.0298
    131  CG        56.8040   28.4100    8.9320 C.3   115  LYS115      0.0038
    132  CD        55.5800   27.9070    8.1580 C.3   115  LYS115      0.0206
    133  CE        55.9340   26.7810    7.1830 C.3   115  LYS115      0.1093
    134  NZ        54.7570   26.3820    6.3680 N.3   115  LYS115     -0.1314
    135  N         59.2550   33.9660   11.0720 N.3   117  ASP117     -0.1225
    136  CA        59.9520   34.8360   10.1250 C.3   117  ASP117      0.1805
    137  C         59.0590   35.4150    9.0260 C.2   117  ASP117      0.2597
    138  O         59.3500   36.4880    8.5130 O.2   117  ASP117     -0.2718
    139  CB        61.0780   34.0610    9.4510 C.3   117  ASP117      0.1424
    140  CG        60.5720   32.8420    8.7190 C.2   117  ASP117      0.3668
    141  OD1       60.0330   31.9470    9.3880 O.co2 117  ASP117     -0.2456
    142  OD2       60.6860   32.7840    7.4860 O.co2 117  ASP117     -0.2456
    143  N         57.9990   34.7090    8.6450 N.am  118  MET118     -0.1979
    144  CA        57.1560   35.1490    7.5300 C.3   118  MET118      0.1605
    145  C         56.3940   36.4300    7.8460 C.2   118  MET118      0.2287
    146  O         55.9780   36.6390    8.9850 O.2   118  MET118     -0.2864
    147  CB        56.1520   34.0600    7.1390 C.3   118  MET118      0.0413
    148  CG        56.7790   32.7960    6.5760 C.3   118  MET118      0.0598
    149  SD        57.4630   32.9790    4.9170 S.3   118  MET118     -0.1393
    150  CE        59.1310   33.5220    5.2700 C.3   118  MET118      0.0692
    151  N         61.2590   29.8860   14.4280 N.3   143  SER143     -0.1202
    152  CA        61.4660   29.7560   12.9790 C.3   143  SER143      0.2020
    153  C         62.6010   28.7950   12.6950 C.2   143  SER143      0.2619
    154  O         63.7490   29.0710   13.0290 O.2   143  SER143     -0.2717
    155  CB        61.7880   31.0940   12.3190 C.3   143  SER143      0.2103
    156  OG        62.0490   30.8920   10.9380 O.3   143  SER143     -0.2182
    157  N         62.2690   27.6700   12.0720 N.am  144  ALA144     -0.1965
    158  CA        63.2770   26.7030   11.6570 C.3   144  ALA144      0.1728
    159  C         64.1740   27.2830   10.5540 C.2   144  ALA144      0.2616
    160  O         65.3590   26.9710   10.4910 O.2   144  ALA144     -0.2715
    161  CB        62.6120   25.4260   11.1990 C.3   144  ALA144      0.0334
    162  N         63.6070   28.1440    9.7080 N.am  145  LYS145     -0.1977
    163  CA        64.3480   28.7810    8.6150 C.3   145  LYS145      0.1596
    164  C         65.4480   29.6920    9.1190 C.2   145  LYS145      0.2287
    165  O         66.5670   29.6530    8.6040 O.2   145  LYS145     -0.2864
    166  CB        63.4140   29.6070    7.7290 C.3   145  LYS145      0.0298
    167  CG        64.1240   30.3880    6.6090 C.3   145  LYS145      0.0038
    168  CD        63.1150   30.9790    5.6070 C.3   145  LYS145      0.0206
    169  CE        63.7890   31.7910    4.4880 C.3   145  LYS145      0.1093
    170  NZ        62.8010   32.1860    3.4340 N.3   145  LYS145     -0.1314
@<TRIPOS>BOND
     1    86    84    1
     2    73    74    1
     3    73    70    1
     4    76    74   ar
     5    76    78   ar
     6    74    75   ar
     7    78    79   ar
     8    75    77   ar
     9    79    77   ar
    10    84    81    1
    11    84    85    1
    12    80    81    1
    13    80    71   am
    14    87    85    1
    15    70    71    1
    16    70    69    1
    17    81    82    1
    18    71    72    2
    19    65    64    2
    20    64    63    1
    21    60    59    2
    22    82    88   am
    23    82    83    2
    24    88    89    1
    25    66    67    1
    26    66    63    1
    27    61    59   am
    28    91    90    2
    29    59    58    1
    30    67    68    1
    31    63    62    1
    32    68    62    1
    33    62    56   am
    34    89    90    1
    35    89    92    1
    36    90    95   am
    37    93    92    1
    38    92    94    1
    39    56    57    2
    40    56    55    1
    41    58    55    1
    42    55    54    1
    43   170   169    1
    44    95    96    1
    45    96    97    1
    46    96    99    1
    47    97    98    2
    48    46    45    2
    49   169   168    1
    50    54    45   am
    51   100    99    1
    52   101    99    1
    53   149   150    1
    54   149   148    1
    55    52    50   ar
    56    52    53   ar
    57    45    44    1
    58    50    48   ar
    59   168   167    1
    60    53    51   ar
    61     5     6    1
    62     5     2    1
    63     8     7    1
    64     8     9    1
    65   134   133    1
    66    48    47    1
    67    48    49   ar
    68   148   147    1
    69    44    47    1
    70    44    43    1
    71   167   166    1
    72    51    49   ar
    73     7     3   am
    74     4     3    2
    75    10     9    2
    76     3     2    1
    77   147   144    1
    78   133   132    1
    79    42    41    1
    80     9    11   am
    81     2     1    1
    82   142   140   ar
    83   144   145    1
    84   144   143    1
    85   166   163    1
    86   145   146    2
    87   132   131    1
    88   138   137    2
    89   165   164    2
    90    11    12    1
    91   163   164    1
    92   163   162    1
    93   143   137   am
    94   140   141   ar
    95   140   139    1
    96    35    36    1
    97    35    32    1
    98    41    38    1
    99   131   130    1
   100   111   112    2
   101   111   110    1
   102   137   136    1
   103   117   115   ar
   104   139   136    1
   105   130   127    1
   106    18    19    1
   107    18    13   am
   108   115   116   ar
   109   115   114    1
   110    38    37    1
   111    38    39    1
   112    37    33   am
   113    12    13    1
   114    12    15    1
   115    19    20    1
   116   109   110    1
   117   162   159   am
   118    13    14    2
   119   114   113    1
   120    33    32    1
   121    33    34    2
   122    32    31    1
   123   136   135    1
   124   110   113    1
   125   105   104    2
   126   160   159    2
   127   129   128    2
   128    31    24   am
   129   159   158    1
   130   104   103    1
   131   127   128    1
   132   127   126    1
   133    30    29    1
   134    20    22   am
   135    20    21    2
   136    16    15    1
   137    39    40    2
   138   156   155    1
   139    15    17    1
   140   107   106    1
   141    22    23    1
   142   161   158    1
   143   125   123   am
   144    29    28    1
   145   158   157    1
   146   126   120   am
   147    24    23    1
   148    24    25    2
   149   106   103    1
   150   106   108    1
   151   103   102    1
   152   121   120    2
   153   157   153   am
   154    23    26    1
   155   155   152    1
   156   120   119    1
   157    26    27    1
   158   123   124    2
   159   123   122    1
   160   153   152    1
   161   153   154    2
   162    27    28    1
   163   152   151    1
   164   122   119    1
   165   119   118    1
