@<TRIPOS>MOLECULE
tmp/3cpoA00.pdb
 134 126 0 0 0
SMALL
GASTEIGER

@<TRIPOS>ATOM
      1  N         -2.2840   14.3930   -5.1500 N.3    14  TYR14      -0.1241
      2  CA        -2.7860   14.5360   -3.7890 C.3    14  TYR14       0.1605
      3  C         -1.6560   14.4250   -2.7620 C.2    14  TYR14       0.2264
      4  O         -1.5490   15.2690   -1.8670 O.2    14  TYR14      -0.2867
      5  CB        -3.9080   13.4940   -3.5380 C.3    14  TYR14       0.0534
      6  CG        -4.2860   13.4310   -2.0740 C.ar   14  TYR14      -0.0201
      7  CD1       -5.3230   14.2520   -1.5450 C.ar   14  TYR14      -0.0009
      8  CD2       -3.6480   12.5330   -1.2170 C.ar   14  TYR14      -0.0009
      9  CE1       -5.6060   14.1850   -0.2150 C.ar   14  TYR14       0.0417
     10  CE2       -3.9690   12.4620    0.1390 C.ar   14  TYR14       0.0417
     11  CZ        -4.9780   13.2750    0.6000 C.ar   14  TYR14       0.1957
     12  OH        -5.3150   13.2390    1.9450 O.3    14  TYR14      -0.2866
     13  N         -0.4280   17.2560   -0.0490 N.3    18  VAL18      -0.1245
     14  CA        -0.3340   17.0290    1.4000 C.3    18  VAL18       0.1561
     15  C          1.0990   17.3690    1.8330 C.2    18  VAL18       0.2260
     16  O          1.3060   18.0170    2.8760 O.2    18  VAL18      -0.2867
     17  CB        -0.7170   15.5780    1.7510 C.3    18  VAL18       0.0252
     18  CG1       -0.4260   15.2940    3.1770 C.3    18  VAL18       0.0019
     19  CG2       -2.1380   15.3730    1.4480 C.3    18  VAL18       0.0019
     20  N        -11.2240    8.9990    7.9530 N.3    38  ASN38      -0.1240
     21  CA        -9.7900    9.0360    8.2720 C.3    38  ASN38       0.1653
     22  C         -9.6630    9.1440    9.7920 C.2    38  ASN38       0.2266
     23  O         -9.8890   10.2230   10.3450 O.2    38  ASN38      -0.2867
     24  CB        -9.1650   10.2610    7.5950 C.3    38  ASN38       0.1155
     25  CG        -7.6690   10.3140    7.7730 C.2    38  ASN38       0.2627
     26  OD1       -7.1140    9.6960    8.6450 O.2    38  ASN38      -0.2716
     27  ND2       -7.0000   11.0340    6.8590 N.am   38  ASN38      -0.0877
     28  N        -10.6790   19.6400    8.6000 N.3    54  PHE54      -0.1227
     29  CA        -9.8850   18.4560    8.8930 C.3    54  PHE54       0.1736
     30  C         -8.4310   18.6210    8.4700 C.2    54  PHE54       0.2595
     31  O         -7.5120   18.3150    9.2580 O.2    54  PHE54      -0.2718
     32  CB       -10.5390   17.2640    8.2040 C.3    54  PHE54       0.0547
     33  CG        -9.7650   16.0050    8.3220 C.ar   54  PHE54      -0.0202
     34  CD1       -9.8460   15.2490    9.4770 C.ar   54  PHE54      -0.0042
     35  CD2       -8.8980   15.6310    7.3300 C.ar   54  PHE54      -0.0042
     36  CE1       -9.0840   14.0710    9.6340 C.ar   54  PHE54      -0.0003
     37  CE2       -8.1470   14.4480    7.4700 C.ar   54  PHE54      -0.0003
     38  CZ        -8.2570   13.6950    8.6340 C.ar   54  PHE54      -0.0000
     39  N         -8.1720   19.0870    7.2180 N.am   55  TYR55      -0.1976
     40  CA        -6.8070   19.2520    6.7990 C.3    55  TYR55       0.1639
     41  C         -6.1220   20.3700    7.5330 C.2    55  TYR55       0.2290
     42  O         -4.9200   20.2910    7.7690 O.2    55  TYR55      -0.2864
     43  CB        -6.7320   19.4470    5.2640 C.3    55  TYR55       0.0560
     44  CG        -6.8800   18.1210    4.5440 C.ar   55  TYR55      -0.0198
     45  CD1       -5.8270   17.2140    4.4460 C.ar   55  TYR55      -0.0009
     46  CD2       -8.0900   17.7580    3.9920 C.ar   55  TYR55      -0.0009
     47  CE1       -6.0060   16.0020    3.8420 C.ar   55  TYR55       0.0417
     48  CE2       -8.2920   16.5210    3.3590 C.ar   55  TYR55       0.0417
     49  CZ        -7.2450   15.6550    3.3060 C.ar   55  TYR55       0.1957
     50  OH        -7.4140   14.4480    2.7180 O.3    55  TYR55      -0.2866
     51  N         -2.7260   19.4220    9.1980 N.3    59  LEU59      -0.1245
     52  CA        -1.5740   20.0210    8.5290 C.3    59  LEU59       0.1561
     53  C         -1.3920   21.5150    8.8610 C.2    59  LEU59       0.2260
     54  O         -0.9530   22.3250    7.9890 O.2    59  LEU59      -0.2867
     55  CB        -1.7280   19.8740    7.0010 C.3    59  LEU59       0.0270
     56  CG        -2.1870   18.5780    6.3360 C.3    59  LEU59       0.0019
     57  CD1       -2.3280   18.8600    4.8130 C.3    59  LEU59       0.0001
     58  CD2       -1.1860   17.3960    6.5660 C.3    59  LEU59       0.0001
     59  N          1.5310    5.2520    1.6350 N.3    81  PHE81      -0.1241
     60  CA         2.3930    6.3900    1.8220 C.3    81  PHE81       0.1605
     61  C          2.6950    6.5100    3.2670 C.2    81  PHE81       0.2264
     62  O          2.1640    5.8210    4.1240 O.2    81  PHE81      -0.2867
     63  CB         1.7760    7.6930    1.2430 C.3    81  PHE81       0.0534
     64  CG         0.4870    8.1120    1.8780 C.ar   81  PHE81      -0.0203
     65  CD1       -0.6950    7.4610    1.5590 C.ar   81  PHE81      -0.0042
     66  CD2        0.4090    9.1490    2.8200 C.ar   81  PHE81      -0.0042
     67  CE1       -1.8890    7.8350    2.0860 C.ar   81  PHE81      -0.0003
     68  CE2       -0.8220    9.5390    3.3630 C.ar   81  PHE81      -0.0003
     69  CZ        -1.9620    8.9020    2.9870 C.ar   81  PHE81      -0.0000
     70  N          3.4820    9.5310    6.3250 N.3    83  VAL83      -0.1245
     71  CA         3.3430   10.9610    6.7020 C.3    83  VAL83       0.1561
     72  C          4.2850   11.1560    7.8750 C.2    83  VAL83       0.2260
     73  O          4.2620   10.3810    8.8450 O.2    83  VAL83      -0.2867
     74  CB         1.8840   11.2760    7.1620 C.3    83  VAL83       0.0252
     75  CG1        1.7860   12.7310    7.5860 C.3    83  VAL83       0.0019
     76  CG2        0.9640   11.0160    6.0000 C.3    83  VAL83       0.0019
     77  N          5.4230   13.7920   10.8670 N.3    85  MET85      -0.1245
     78  CA         4.9690   15.0010   11.5220 C.3    85  MET85       0.1570
     79  C          5.6480   15.1300   12.8470 C.2    85  MET85       0.2261
     80  O          6.4230   14.2800   13.2470 O.2    85  MET85      -0.2867
     81  CB         3.4670   14.9110   11.7500 C.3    85  MET85       0.0387
     82  CG         3.0940   13.7900   12.6990 C.3    85  MET85       0.0595
     83  SD         2.3790   12.3990   11.7990 S.3    85  MET85      -0.1393
     84  CE         0.8060   13.1460   11.3470 C.3    85  MET85       0.0692
     85  N          3.6520    8.0810   10.2840 N.3    94  LEU94      -0.1245
     86  CA         2.4190    7.2460   10.1980 C.3    94  LEU94       0.1561
     87  C          2.3540    6.6310    8.8140 C.2    94  LEU94       0.2260
     88  O          2.4080    7.3530    7.8260 O.2    94  LEU94      -0.2867
     89  CB         1.2410    8.1810   10.3680 C.3    94  LEU94       0.0270
     90  CG        -0.1280    7.4780   10.3430 C.3    94  LEU94       0.0019
     91  CD1       -0.3440    6.5100   11.5120 C.3    94  LEU94       0.0001
     92  CD2       -1.2430    8.5570   10.3110 C.3    94  LEU94       0.0001
     93  N          0.1590    4.8120    5.9350 N.3    96  VAL96      -0.1245
     94  CA        -1.2570    4.8990    5.6200 C.3    96  VAL96       0.1561
     95  C         -1.4850    4.2900    4.2540 C.2    96  VAL96       0.2260
     96  O         -0.6010    4.3500    3.4000 O.2    96  VAL96      -0.2867
     97  CB        -1.6780    6.4280    5.5820 C.3    96  VAL96       0.0252
     98  CG1       -3.1480    6.5530    5.3040 C.3    96  VAL96       0.0019
     99  CG2       -1.3590    7.1360    6.8540 C.3    96  VAL96       0.0019
    100  N         -4.4430    5.0810    1.3940 N.3    98  ASP98      -0.1239
    101  CA        -5.6870    5.7490    1.0310 C.3    98  ASP98       0.1674
    102  C         -6.2840    5.0290   -0.1360 C.2    98  ASP98       0.2266
    103  O         -5.6560    4.6610   -1.1010 O.2    98  ASP98      -0.2867
    104  CB        -5.4140    7.2030    0.5910 C.3    98  ASP98       0.1410
    105  CG        -5.2080    8.1460    1.7430 C.2    98  ASP98       0.3668
    106  OD1       -5.3510    7.7610    2.9210 O.co2  98  ASP98      -0.2456
    107  OD2       -4.9770    9.3360    1.4570 O.co2  98  ASP98      -0.2456
    108  N        -12.9500    9.2870    0.1610 N.3   111  MET111     -0.1245
    109  CA       -11.5720    9.0700    0.6690 C.3   111  MET111      0.1570
    110  C        -11.7230    8.0700    1.8440 C.2   111  MET111      0.2261
    111  O        -12.4900    8.4260    2.7500 O.2   111  MET111     -0.2867
    112  CB       -11.0040   10.4170    1.2310 C.3   111  MET111      0.0387
    113  CG        -9.8610   10.3120    2.2690 C.3   111  MET111      0.0595
    114  SD        -8.3000   10.1790    1.3940 S.3   111  MET111     -0.1393
    115  CE        -8.4350    8.5260    0.6490 C.3   111  MET111      0.0692
    116  N         -9.0240    6.3880    4.5440 N.3   113  ALA113     -0.1245
    117  CA        -7.6220    6.3140    4.9460 C.3   113  ALA113      0.1562
    118  C         -7.4440    5.2040    5.9570 C.2   113  ALA113      0.2260
    119  O         -7.8750    5.3420    7.1010 O.2   113  ALA113     -0.2867
    120  CB        -7.1800    7.6580    5.5600 C.3   113  ALA113      0.0290
    121  N         -5.4720    3.1210    8.5710 N.3   115  TRP115     -0.1241
    122  CA        -4.3350    3.1400    9.4820 C.3   115  TRP115      0.1605
    123  C         -4.8920    3.0210   10.8930 C.2   115  TRP115      0.2264
    124  O         -6.0850    3.2960   11.1110 O.2   115  TRP115     -0.2867
    125  CB        -3.5170    4.4850    9.3890 C.3   115  TRP115      0.0550
    126  CG        -4.2330    5.7400    9.7370 C.ar  115  TRP115      0.0003
    127  CD1       -4.9240    6.5480    8.8860 C.ar  115  TRP115      0.0946
    128  CD2       -4.3160    6.3820   11.0340 C.ar  115  TRP115      0.0152
    129  NE1       -5.4630    7.6190    9.5700 N.ar  115  TRP115     -0.2442
    130  CE2       -5.0720    7.5440   10.8750 C.ar  115  TRP115      0.0810
    131  CE3       -3.8180    6.0770   12.2960 C.ar  115  TRP115      0.0012
    132  CZ2       -5.3880    8.3940   11.9570 C.ar  115  TRP115      0.0191
    133  CZ3       -4.1120    6.9420   13.3700 C.ar  115  TRP115      0.0001
    134  CH2       -4.8790    8.0700   13.1770 C.ar  115  TRP115      0.0015
@<TRIPOS>BOND
     1     1     2    1
     2     2     5    1
     3     2     3    1
     4     5     6    1
     5     3     4    2
     6     6     7   ar
     7     6     8   ar
     8     7     9   ar
     9     8    10   ar
    10   103   102    2
    11     9    11   ar
    12   102   101    1
    13    13    14    1
    14    10    11   ar
    15   108   109    1
    16   104   101    1
    17   104   105    1
    18    11    12    1
    19   115   114    1
    20   109   112    1
    21   109   110    1
    22   101   100    1
    23   112   113    1
    24    63    60    1
    25    63    64    1
    26   114   113    1
    27    14    17    1
    28    14    15    1
    29    19    17    1
    30   107   105   ar
    31    65    64   ar
    32    65    67   ar
    33    59    60    1
    34   105   106   ar
    35    17    18    1
    36    60    61    1
    37    15    16    2
    38   110   111    2
    39    64    66   ar
    40    67    69   ar
    41    50    49    1
    42    66    68   ar
    43    69    68   ar
    44    61    62    2
    45    49    48   ar
    46    49    47   ar
    47    48    46   ar
    48    96    95    2
    49    47    45   ar
    50    46    44   ar
    51    95    94    1
    52    45    44   ar
    53   116   117    1
    54    44    43    1
    55    57    56    1
    56   117   120    1
    57   117   118    1
    58    43    40    1
    59    98    97    1
    60    97    94    1
    61    97    99    1
    62    94    93    1
    63   118   119    2
    64    76    74    1
    65    70    71    1
    66    56    58    1
    67    56    55    1
    68    71    74    1
    69    71    72    1
    70    40    39    1
    71    40    41    1
    72    27    25   am
    73    55    52    1
    74    74    75    1
    75    39    30   am
    76    35    37   ar
    77    35    33   ar
    78    37    38   ar
    79    41    42    2
    80    24    25    1
    81    24    21    1
    82    25    26    2
    83    88    87    2
    84    72    73    2
    85    20    21    1
    86    54    53    2
    87    32    33    1
    88    32    29    1
    89    21    22    1
    90    33    34   ar
    91    30    29    1
    92    30    31    2
    93    52    53    1
    94    52    51    1
    95   121   122    1
    96    28    29    1
    97    38    36   ar
    98    87    86    1
    99   127   129   ar
   100   127   126   ar
   101   125   122    1
   102   125   126    1
   103    34    36   ar
   104   122   123    1
   105   129   130   ar
   106   126   128   ar
   107    22    23    2
   108    86    85    1
   109    86    89    1
   110    92    90    1
   111    90    89    1
   112    90    91    1
   113    77    78    1
   114   130   128   ar
   115   130   132   ar
   116   123   124    2
   117   128   131   ar
   118    84    83    1
   119    78    81    1
   120    78    79    1
   121    81    82    1
   122    83    82    1
   123   132   134   ar
   124   131   133   ar
   125    79    80    2
   126   134   133   ar
