@<TRIPOS>MOLECULE
tmp/3cq0A00.pdb
 100 98 0 0 0
SMALL
GASTEIGER

@<TRIPOS>ATOM
      1  N         13.2670    1.1150  -12.5510 N.3   104  PHE104     -0.1241
      2  CA        14.4420    1.2850  -13.4190 C.3   104  PHE104      0.1605
      3  C         15.5790    0.3470  -13.0160 C.2   104  PHE104      0.2264
      4  O         16.7500    0.5480  -13.3790 O.2   104  PHE104     -0.2867
      5  CB        14.8990    2.7520  -13.4060 C.3   104  PHE104      0.0534
      6  CG        13.8170    3.7180  -13.7860 C.ar  104  PHE104     -0.0203
      7  CD1       13.2070    4.5140  -12.8180 C.ar  104  PHE104     -0.0042
      8  CD2       13.3820    3.8080  -15.1090 C.ar  104  PHE104     -0.0042
      9  CE1       12.1880    5.4120  -13.1640 C.ar  104  PHE104     -0.0003
     10  CE2       12.3610    4.6920  -15.4660 C.ar  104  PHE104     -0.0003
     11  CZ        11.7690    5.5030  -14.4920 C.ar  104  PHE104     -0.0000
     12  N          8.5570   -0.1430  -18.1630 N.3   137  THR137     -0.1203
     13  CA         9.8060    0.5040  -18.5660 C.3   137  THR137      0.1994
     14  C         10.6250   -0.5360  -19.3230 C.2   137  THR137      0.2618
     15  O         10.2730   -1.7120  -19.3140 O.2   137  THR137     -0.2717
     16  CB        10.6190    0.8950  -17.3390 C.3   137  THR137      0.1784
     17  OG1       10.7910   -0.2670  -16.5070 O.3   137  THR137     -0.2211
     18  CG2        9.9040    1.9910  -16.5500 C.3   137  THR137      0.0376
     19  N         11.7240   -0.1190  -19.9570 N.am  138  TRP138     -0.1961
     20  CA        12.6340   -1.0910  -20.5670 C.3   138  TRP138      0.1771
     21  C         13.0780   -2.1250  -19.5420 C.2   138  TRP138      0.2619
     22  O         13.0420   -3.3190  -19.8160 O.2   138  TRP138     -0.2715
     23  CB        13.8680   -0.4100  -21.1560 C.3   138  TRP138      0.0590
     24  CG        14.8490   -1.3720  -21.7400 C.ar  138  TRP138      0.0006
     25  CD1       16.0450   -1.7650  -21.1960 C.ar  138  TRP138      0.0946
     26  CD2       14.7170   -2.0870  -22.9770 C.ar  138  TRP138      0.0152
     27  NE1       16.6670   -2.6680  -22.0290 N.ar  138  TRP138     -0.2442
     28  CE2       15.8730   -2.8860  -23.1250 C.ar  138  TRP138      0.0810
     29  CE3       13.7330   -2.1290  -23.9740 C.ar  138  TRP138      0.0012
     30  CZ2       16.0820   -3.7090  -24.2430 C.ar  138  TRP138      0.0191
     31  CZ3       13.9410   -2.9580  -25.0900 C.ar  138  TRP138      0.0001
     32  CH2       15.1070   -3.7250  -25.2120 C.ar  138  TRP138      0.0015
     33  N         13.5110   -1.6550  -18.3680 N.am  139  GLU139     -0.1977
     34  CA        13.9960   -2.5420  -17.2980 C.3   139  GLU139      0.1602
     35  C         12.9120   -3.5030  -16.7960 C.2   139  GLU139      0.2287
     36  O         13.1860   -4.6810  -16.5590 O.2   139  GLU139     -0.2864
     37  CB        14.5780   -1.7320  -16.1360 C.3   139  GLU139      0.0415
     38  CG        15.8180   -0.8810  -16.5030 C.3   139  GLU139      0.1163
     39  CD        15.4920    0.4840  -17.1290 C.2   139  GLU139      0.3649
     40  OE1       14.3020    0.8160  -17.3540 O.co2 139  GLU139     -0.2457
     41  OE2       16.4480    1.2410  -17.4020 O.co2 139  GLU139     -0.2457
     42  N         14.2280    0.8530  -28.9770 N.3   283  PHE283     -0.1227
     43  CA        13.0740    0.9490  -28.0710 C.3   283  PHE283      0.1736
     44  C         13.0180    2.3220  -27.3900 C.2   283  PHE283      0.2595
     45  O         11.9790    2.9880  -27.4190 O.2   283  PHE283     -0.2718
     46  CB        13.1080   -0.1600  -27.0150 C.3   283  PHE283      0.0547
     47  CG        12.0030   -0.0620  -25.9880 C.ar  283  PHE283     -0.0202
     48  CD1       10.8030   -0.7320  -26.1800 C.ar  283  PHE283     -0.0042
     49  CD2       12.1750    0.6880  -24.8160 C.ar  283  PHE283     -0.0042
     50  CE1        9.7800   -0.6470  -25.2300 C.ar  283  PHE283     -0.0003
     51  CE2       11.1530    0.7710  -23.8520 C.ar  283  PHE283     -0.0003
     52  CZ         9.9610    0.1040  -24.0590 C.ar  283  PHE283     -0.0000
     53  N         14.1340    2.7460  -26.7890 N.am  284  ARG284     -0.1980
     54  CA        14.1590    4.0010  -26.0290 C.3   284  ARG284      0.1597
     55  C         13.8940    5.2050  -26.9190 C.2   284  ARG284      0.2287
     56  O         13.1660    6.1110  -26.5250 O.2   284  ARG284     -0.2864
     57  CB        15.4790    4.1750  -25.2720 C.3   284  ARG284      0.0334
     58  CG        15.6520    3.2090  -24.0980 C.3   284  ARG284      0.0492
     59  CD        17.0250    3.4210  -23.4230 C.3   284  ARG284      0.2205
     60  NE        17.2500    2.4850  -22.3170 N.pl3 284  ARG284     -0.0865
     61  CZ        16.6670    2.5800  -21.1240 C.cat 284  ARG284      0.5346
     62  NH1       15.8200    3.5710  -20.8700 N.pl3 284  ARG284      0.1354
     63  NH2       16.9320    1.6810  -20.1820 N.pl3 284  ARG284      0.1354
     64  N         10.0980    5.0070  -28.1400 N.3   287  LEU287     -0.1231
     65  CA         9.2310    5.3530  -27.0110 C.3   287  LEU287      0.1693
     66  C          9.2930    6.8420  -26.7040 C.2   287  LEU287      0.2592
     67  O          8.2620    7.4710  -26.4560 O.2   287  LEU287     -0.2718
     68  CB         9.5570    4.5240  -25.7610 C.3   287  LEU287      0.0284
     69  CG         8.6570    4.7820  -24.5420 C.3   287  LEU287      0.0019
     70  CD1        7.1750    4.4880  -24.8390 C.3   287  LEU287      0.0001
     71  CD2        9.1330    3.9760  -23.3480 C.3   287  LEU287      0.0001
     72  N         10.4980    7.4080  -26.7360 N.am  288  ASN288     -0.1974
     73  CA        10.6700    8.8380  -26.4970 C.3   288  ASN288      0.1688
     74  C          9.9500    9.7200  -27.5120 C.2   288  ASN288      0.2292
     75  O          9.5510   10.8530  -27.1980 O.2   288  ASN288     -0.2864
     76  CB        12.1510    9.2280  -26.4360 C.3   288  ASN288      0.1181
     77  CG        12.3460   10.6510  -25.9350 C.2   288  ASN288      0.2629
     78  OD1       12.6800   11.5690  -26.7040 O.2   288  ASN288     -0.2716
     79  ND2       12.1030   10.8490  -24.6500 N.am  288  ASN288     -0.0877
     80  N          5.5910    8.4550  -22.8870 N.3   294  THR294     -0.1218
     81  CA         6.7400    8.7990  -22.0550 C.3   294  THR294      0.1862
     82  C          6.3050    9.5810  -20.8110 C.2   294  THR294      0.2287
     83  O          6.7150    9.2570  -19.6930 O.2   294  THR294     -0.2866
     84  CB         7.7890    9.6020  -22.8700 C.3   294  THR294      0.1770
     85  OG1        8.3880    8.7380  -23.8440 O.3   294  THR294     -0.2211
     86  CG2        8.8910   10.1760  -21.9670 C.3   294  THR294      0.0375
     87  N          3.9260    7.2960  -18.4610 N.3   297  LEU297     -0.1231
     88  CA         4.7470    6.2840  -17.7880 C.3   297  LEU297      0.1693
     89  C          5.5610    6.9210  -16.6680 C.2   297  LEU297      0.2592
     90  O          5.5490    6.4340  -15.5300 O.2   297  LEU297     -0.2718
     91  CB         5.6850    5.5630  -18.7700 C.3   297  LEU297      0.0284
     92  CG         6.6970    4.5430  -18.2190 C.3   297  LEU297      0.0019
     93  CD1        6.0490    3.4360  -17.3590 C.3   297  LEU297      0.0001
     94  CD2        7.5120    3.9240  -19.3700 C.3   297  LEU297      0.0001
     95  N          6.2640    8.0050  -17.0000 N.am  298  SER298     -0.1952
     96  CA         7.0590    8.7410  -16.0220 C.3   298  SER298      0.1924
     97  C          6.1990    9.1720  -14.8300 C.2   298  SER298      0.2314
     98  O          6.5890    8.9750  -13.6790 O.2   298  SER298     -0.2863
     99  CB         7.7360    9.9500  -16.6810 C.3   298  SER298      0.2116
    100  OG         8.4480   10.7230  -15.7230 O.3   298  SER298     -0.2180
@<TRIPOS>BOND
     1    42    43    1
     2    64    65    1
     3    43    44    1
     4    43    46    1
     5    74    75    2
     6    74    73    1
     7    45    44    2
     8    44    53   am
     9    46    47    1
    10    65    66    1
    11    65    68    1
    12    55    56    2
    13    55    54    1
    14    53    54    1
    15    72    66   am
    16    72    73    1
    17    66    67    2
    18    78    77    2
    19    73    76    1
    20    76    77    1
    21    48    47   ar
    22    48    50   ar
    23    54    57    1
    24    47    49   ar
    25    77    79   am
    26    68    69    1
    27    57    58    1
    28    50    52   ar
    29    32    31   ar
    30    32    30   ar
    31    31    29   ar
    32    70    69    1
    33    49    51   ar
    34    69    71    1
    35    30    28   ar
    36    58    59    1
    37    52    51   ar
    38    29    26   ar
    39    85    84    1
    40    59    60    1
    41    28    26   ar
    42    28    27   ar
    43    26    24   ar
    44    80    81    1
    45    84    81    1
    46    84    86    1
    47    60    61    2
    48    81    82    1
    49    27    25   ar
    50    24    25   ar
    51    24    23    1
    52    23    20    1
    53    61    62    1
    54    61    63    1
    55    82    83    2
    56    20    19    1
    57    20    21    1
    58    19    14   am
    59    22    21    2
    60    21    33   am
    61    94    92    1
    62    14    15    2
    63    14    13    1
    64    91    92    1
    65    91    88    1
    66    13    12    1
    67    13    16    1
    68    87    88    1
    69    33    34    1
    70    92    93    1
    71    88    89    1
    72    41    39   ar
    73    40    39   ar
    74    16    18    1
    75    16    17    1
    76    34    35    1
    77    34    37    1
    78    39    38    1
    79    95    89   am
    80    95    96    1
    81    35    36    2
    82    99    96    1
    83    99   100    1
    84    89    90    2
    85    38    37    1
    86    96    97    1
    87    10     8   ar
    88    10    11   ar
    89     8     6   ar
    90    97    98    2
    91    11     9   ar
    92     6     5    1
    93     6     7   ar
    94     2     5    1
    95     2     3    1
    96     2     1    1
    97     4     3    2
    98     9     7   ar
