@<TRIPOS>MOLECULE
tmp/3cq5B01.pdb
 137 127 0 0 0
SMALL
GASTEIGER

@<TRIPOS>ATOM
      1  N         56.7180   17.6880   20.4720 N.3    34  THR34      -0.1203
      2  CA        55.4290   17.0120   20.6550 C.3    34  THR34       0.1994
      3  C         55.3460   16.1950   21.9500 C.2    34  THR34       0.2617
      4  O         54.4570   15.3620   22.1190 O.2    34  THR34      -0.2717
      5  CB        55.0590   16.1470   19.3990 C.3    34  THR34       0.1784
      6  OG1       56.1280   15.2500   19.1100 O.3    34  THR34      -0.2211
      7  CG2       54.8180   17.0440   18.1620 C.3    34  THR34       0.0376
      8  N         56.2610   16.4670   22.8780 N.am   35  ASN35      -0.1974
      9  CA        56.2230   15.9030   24.2090 C.3    35  ASN35       0.1688
     10  C         56.3960   14.3830   24.2070 C.2    35  ASN35       0.2292
     11  O         56.0190   13.7000   25.1560 O.2    35  ASN35      -0.2864
     12  CB        54.9580   16.3720   24.9700 C.3    35  ASN35       0.1181
     13  CG        55.0060   17.8760   25.2930 C.2    35  ASN35       0.2629
     14  OD1       56.0840   18.4490   25.3390 O.2    35  ASN35      -0.2716
     15  ND2       53.8470   18.4920   25.5450 N.am   35  ASN35      -0.0877
     16  N         44.3760    7.0850   20.8770 N.3    97  GLY97      -0.1210
     17  CA        44.8740    8.2970   21.5140 C.3    97  GLY97       0.1956
     18  C         43.8630    8.9070   22.4720 C.2    97  GLY97       0.2613
     19  O         42.6430    8.6690   22.3560 O.2    97  GLY97      -0.2717
     20  N         44.3700    9.6970   23.4270 N.am   98  SER98      -0.1938
     21  CA        43.5270   10.5580   24.2690 C.3    98  SER98       0.2055
     22  C         42.6200   11.4280   23.4540 C.2    98  SER98       0.2643
     23  O         41.5150   11.7460   23.8980 O.2    98  SER98      -0.2714
     24  CB        44.3720   11.5140   25.1320 C.3    98  SER98       0.2130
     25  OG        45.0140   10.7920   26.0950 O.3    98  SER98      -0.2179
     26  N         43.0800   11.8600   22.2830 N.am   99  ASN99      -0.1971
     27  CA        42.2440   12.6630   21.3950 C.3    99  ASN99       0.1688
     28  C         40.8870   11.9920   21.1240 C.2    99  ASN99       0.2292
     29  O         39.8340   12.6450   21.2170 O.2    99  ASN99      -0.2864
     30  CB        42.9360   12.9450   20.0540 C.3    99  ASN99       0.1181
     31  CG        44.1100   13.9210   20.1700 C.2    99  ASN99       0.2629
     32  OD1       45.0310   13.8830   19.3420 O.2    99  ASN99      -0.2716
     33  ND2       44.1040   14.7600   21.1910 N.am   99  ASN99      -0.0877
     34  N         38.7410   11.8270   24.3520 N.3   102  LEU102     -0.1245
     35  CA        38.1440   13.1460   24.6120 C.3   102  LEU102      0.1561
     36  C         36.9910   13.4230   23.6580 C.2   102  LEU102      0.2260
     37  O         35.9550   13.9940   24.0610 O.2   102  LEU102     -0.2867
     38  CB        39.2300   14.2420   24.5460 C.3   102  LEU102      0.0270
     39  CG        40.2580   14.1140   25.6830 C.3   102  LEU102      0.0019
     40  CD1       41.4340   15.0950   25.5330 C.3   102  LEU102      0.0001
     41  CD2       39.5980   14.2640   27.0670 C.3   102  LEU102      0.0001
     42  N         45.6050   22.6520   26.8910 N.3   123  TYR123     -0.1241
     43  CA        45.8440   21.8470   25.6970 C.3   123  TYR123      0.1605
     44  C         44.9830   22.3580   24.5560 C.2   123  TYR123      0.2264
     45  O         43.7720   22.4830   24.6940 O.2   123  TYR123     -0.2867
     46  CB        45.5540   20.3810   26.0030 C.3   123  TYR123      0.0534
     47  CG        45.7360   19.3890   24.8550 C.ar  123  TYR123     -0.0201
     48  CD1       44.8880   18.2900   24.7330 C.ar  123  TYR123     -0.0009
     49  CD2       46.7460   19.5340   23.9220 C.ar  123  TYR123     -0.0009
     50  CE1       45.0490   17.3550   23.6750 C.ar  123  TYR123      0.0417
     51  CE2       46.9110   18.6160   22.8620 C.ar  123  TYR123      0.0417
     52  CZ        46.0730   17.5260   22.7550 C.ar  123  TYR123      0.1957
     53  OH        46.2200   16.6150   21.7060 O.3   123  TYR123     -0.2866
     54  N         43.6380   20.0530   33.2540 N.3   168  THR168     -0.1218
     55  CA        44.8280   19.3460   32.7640 C.3   168  THR168      0.1862
     56  C         45.9220   19.4750   33.7990 C.2   168  THR168      0.2287
     57  O         46.3010   20.5870   34.1510 O.2   168  THR168     -0.2866
     58  CB        45.3440   19.9420   31.4330 C.3   168  THR168      0.1770
     59  OG1       44.2400   20.1750   30.5480 O.3   168  THR168     -0.2211
     60  CG2       46.3500   18.9790   30.7540 C.3   168  THR168      0.0375
     61  N         49.5300   21.2510   30.0840 N.3   172  ASN172     -0.1240
     62  CA        50.1750   21.5500   28.8190 C.3   172  ASN172      0.1653
     63  C         49.5710   22.8680   28.3660 C.2   172  ASN172      0.2266
     64  O         48.3640   22.9240   28.1550 O.2   172  ASN172     -0.2867
     65  CB        49.8790   20.4350   27.7970 C.3   172  ASN172      0.1155
     66  CG        50.3670   20.7710   26.3910 C.2   172  ASN172      0.2627
     67  OD1       51.1350   21.7170   26.2000 O.2   172  ASN172     -0.2716
     68  ND2       49.9060   20.0170   25.3970 N.am  172  ASN172     -0.0877
     69  N         42.5800   15.6800   32.8150 N.3   197  ASP197     -0.1239
     70  CA        43.4680   15.1980   31.7700 C.3   197  ASP197      0.1674
     71  C         44.8720   15.0360   32.3520 C.2   197  ASP197      0.2266
     72  O         45.6120   16.0090   32.5220 O.2   197  ASP197     -0.2867
     73  CB        43.4500   16.1730   30.5880 C.3   197  ASP197      0.1410
     74  CG        44.1950   15.6380   29.3740 C.2   197  ASP197      0.3668
     75  OD1       45.0940   14.7860   29.5670 O.co2 197  ASP197     -0.2456
     76  OD2       43.8500   16.0680   28.2490 O.co2 197  ASP197     -0.2456
     77  N         47.4510   13.3630   31.0270 N.3   199  ALA199     -0.1231
     78  CA        48.3790   12.9440   29.9910 C.3   199  ALA199      0.1694
     79  C         49.8250   12.8480   30.5000 C.2   199  ALA199      0.2592
     80  O         50.5580   11.9280   30.1020 O.2   199  ALA199     -0.2718
     81  CB        48.2940   13.8950   28.7860 C.3   199  ALA199      0.0304
     82  N         50.2190   13.7690   31.3890 N.am  200  TYR200     -0.1976
     83  CA        51.6070   13.8780   31.8720 C.3   200  TYR200      0.1639
     84  C         51.7820   13.4230   33.2950 C.2   200  TYR200      0.2290
     85  O         52.8250   13.6750   33.8750 O.2   200  TYR200     -0.2864
     86  CB        52.1340   15.3230   31.7010 C.3   200  TYR200      0.0560
     87  CG        52.0040   15.7450   30.2580 C.ar  200  TYR200     -0.0198
     88  CD1       52.9220   15.3260   29.3020 C.ar  200  TYR200     -0.0009
     89  CD2       50.9250   16.5120   29.8400 C.ar  200  TYR200     -0.0009
     90  CE1       52.7600   15.6710   27.9400 C.ar  200  TYR200      0.0417
     91  CE2       50.7560   16.8590   28.4900 C.ar  200  TYR200      0.0417
     92  CZ        51.6830   16.4400   27.5520 C.ar  200  TYR200      0.1957
     93  OH        51.5250   16.7640   26.2300 O.3   200  TYR200     -0.2866
     94  N         47.2190    8.6530   28.8250 N.3   225  THR225     -0.1218
     95  CA        47.7130    8.2340   27.5140 C.3   225  THR225      0.1862
     96  C         48.9860    7.4090   27.5970 C.2   225  THR225      0.2287
     97  O         49.7150    7.4560   28.5960 O.2   225  THR225     -0.2866
     98  CB        47.9790    9.4520   26.6350 C.3   225  THR225      0.1770
     99  OG1       48.4210    9.0260   25.3420 O.3   225  THR225     -0.2211
    100  CG2       49.0140   10.3720   27.2810 C.3   225  THR225      0.0375
    101  N         51.1510    7.9340   25.0910 N.3   227  SER227     -0.1202
    102  CA        51.9760    8.7040   24.1410 C.3   227  SER227      0.2020
    103  C         53.1780    9.4500   24.7130 C.2   227  SER227      0.2618
    104  O         54.0760    9.8560   23.9640 O.2   227  SER227     -0.2717
    105  CB        51.1040    9.7190   23.3900 C.3   227  SER227      0.2103
    106  OG        50.0710    9.0490   22.6930 O.3   227  SER227     -0.2182
    107  N         53.1920    9.6650   26.0170 N.am  228  LYS228     -0.1979
    108  CA        54.1660   10.5620   26.6310 C.3   228  LYS228      0.1596
    109  C         55.1710    9.7340   27.4370 C.2   228  LYS228      0.2287
    110  O         56.0480    9.0990   26.8290 O.2   228  LYS228     -0.2864
    111  CB        53.4390   11.6480   27.4310 C.3   228  LYS228      0.0298
    112  CG        52.2970   12.3610   26.6440 C.3   228  LYS228      0.0038
    113  CD        52.7510   13.0330   25.3590 C.3   228  LYS228      0.0206
    114  CE        51.6070   13.7470   24.6640 C.3   228  LYS228      0.1093
    115  NZ        52.0570   14.4400   23.4250 N.3   228  LYS228     -0.1314
    116  N         49.2330    5.1100   19.3120 N.3   236  ARG236     -0.1245
    117  CA        47.9290    5.7900   19.4520 C.3   236  ARG236      0.1563
    118  C         46.9850    5.0970   20.4390 C.2   236  ARG236      0.2260
    119  O         45.9450    4.5560   20.0560 O.2   236  ARG236     -0.2867
    120  CB        47.2400    5.9820   18.0910 C.3   236  ARG236      0.0307
    121  CG        48.0720    6.6040   16.9920 C.3   236  ARG236      0.0489
    122  CD        48.6770    7.9710   17.3710 C.3   236  ARG236      0.2205
    123  NE        47.6640    8.9490   17.7590 N.pl3 236  ARG236     -0.0865
    124  CZ        47.5900    9.5600   18.9440 C.cat 236  ARG236      0.5346
    125  NH1       48.4430    9.3060   19.9250 N.pl3 236  ARG236      0.1354
    126  NH2       46.6240   10.4360   19.1580 N.pl3 236  ARG236      0.1354
    127  N         57.4850   26.3010   24.0100 N.3   342  ARG342     -0.1245
    128  CA        57.5150   25.1040   24.8350 C.3   342  ARG342      0.1563
    129  C         58.5250   24.1210   24.2430 C.2   342  ARG342      0.2260
    130  O         58.3990   23.7470   23.0790 O.2   342  ARG342     -0.2867
    131  CB        56.1320   24.4550   24.8920 C.3   342  ARG342      0.0307
    132  CG        55.9910   23.3060   25.9110 C.3   342  ARG342      0.0489
    133  CD        54.7340   22.4730   25.6880 C.3   342  ARG342      0.2205
    134  NE        54.8950   21.6820   24.4720 N.pl3 342  ARG342     -0.0865
    135  CZ        53.9260   21.2950   23.6440 C.cat 342  ARG342      0.5346
    136  NH1       52.6510   21.5370   23.9060 N.pl3 342  ARG342      0.1354
    137  NH2       54.2440   20.6080   22.5450 N.pl3 342  ARG342      0.1354
@<TRIPOS>BOND
     1   121   122    1
     2   121   120    1
     3   122   123    1
     4   123   124    2
     5   120   117    1
     6     7     5    1
     7   124   126    1
     8   124   125    1
     9     6     5    1
    10   116   117    1
    11    32    31    2
    12     5     2    1
    13   117   118    1
    14    30    31    1
    15    30    27    1
    16   119   118    2
    17    31    33   am
    18     1     2    1
    19     2     3    1
    20    16    17    1
    21    28    29    2
    22    28    27    1
    23    27    26    1
    24    17    18    1
    25    53    52    1
    26     3     4    2
    27     3     8   am
    28    26    22   am
    29    19    18    2
    30    18    20   am
    31   137   135    1
    32   106   105    1
    33    52    51   ar
    34    52    50   ar
    35    51    49   ar
    36     8     9    1
    37   130   129    2
    38   105   102    1
    39   115   114    1
    40    20    21    1
    41    22    23    2
    42    22    21    1
    43   135   136    1
    44   135   134    2
    45    36    37    2
    46    36    35    1
    47    50    48   ar
    48    49    47   ar
    49   104   103    2
    50   127   128    1
    51   102   103    1
    52   102   101    1
    53    10     9    1
    54    10    11    2
    55     9    12    1
    56   129   128    1
    57    21    24    1
    58    34    35    1
    59   134   133    1
    60    38    35    1
    61    38    39    1
    62    44    45    2
    63    44    43    1
    64   114   113    1
    65   103   107   am
    66    48    47   ar
    67   128   131    1
    68    47    46    1
    69   131   132    1
    70    12    13    1
    71    24    25    1
    72    13    14    2
    73    13    15   am
    74    99    98    1
    75   113   112    1
    76    68    66   am
    77    40    39    1
    78    39    41    1
    79   133   132    1
    80    43    46    1
    81    43    42    1
    82   107   108    1
    83    67    66    2
    84    93    92    1
    85    66    65    1
    86   108   111    1
    87   108   109    1
    88    98   100    1
    89    98    95    1
    90   112   111    1
    91   110   109    2
    92    95    96    1
    93    95    94    1
    94    92    90   ar
    95    92    91   ar
    96    96    97    2
    97    65    62    1
    98    90    88   ar
    99    64    63    2
   100    76    74   ar
   101    63    62    1
   102    91    89   ar
   103    81    78    1
   104    62    61    1
   105    88    87   ar
   106    74    75   ar
   107    74    73    1
   108    89    87   ar
   109    78    79    1
   110    78    77    1
   111    80    79    2
   112    87    86    1
   113    79    82   am
   114    59    58    1
   115    73    70    1
   116    60    58    1
   117    82    83    1
   118    58    55    1
   119    86    83    1
   120    70    71    1
   121    70    69    1
   122    83    84    1
   123    71    72    2
   124    55    54    1
   125    55    56    1
   126    84    85    2
   127    56    57    2
