@<TRIPOS>MOLECULE
tmp/3cq5B00.pdb
 87 82 0 0 0
SMALL
GASTEIGER

@<TRIPOS>ATOM
      1  N         45.0130   21.0560   12.1830 N.3    21  TYR21      -0.1227
      2  CA        45.8370   21.1150   13.3760 C.3    21  TYR21       0.1736
      3  C         47.0800   20.2330   13.2630 C.2    21  TYR21       0.2596
      4  O         47.0390   19.1750   12.6610 O.2    21  TYR21      -0.2718
      5  CB        45.0290   20.6580   14.5750 C.3    21  TYR21       0.0548
      6  CG        45.7580   20.7940   15.8860 C.ar   21  TYR21      -0.0200
      7  CD1       45.6610   21.9660   16.6210 C.ar   21  TYR21      -0.0009
      8  CD2       46.5300   19.7590   16.3980 C.ar   21  TYR21      -0.0009
      9  CE1       46.3110   22.1110   17.8250 C.ar   21  TYR21       0.0417
     10  CE2       47.1930   19.9010   17.6140 C.ar   21  TYR21       0.0417
     11  CZ        47.0690   21.0810   18.3220 C.ar   21  TYR21       0.1957
     12  OH        47.6980   21.2730   19.5400 O.3    21  TYR21      -0.2866
     13  N         48.1670   20.6720   13.8950 N.am   22  GLY22      -0.1942
     14  CA        49.3530   19.8510   14.0660 C.3    22  GLY22       0.2014
     15  C         50.6440   20.6050   13.8100 C.2    22  GLY22       0.2638
     16  O         50.7270   21.4440   12.9020 O.2    22  GLY22      -0.2714
     17  N         51.6550   20.3060   14.6190 N.am   23  ALA23      -0.1977
     18  CA        52.9610   20.9390   14.4760 C.3    23  ALA23       0.1597
     19  C         53.5100   20.6440   13.0830 C.2    23  ALA23       0.2287
     20  O         53.2000   19.6020   12.4900 O.2    23  ALA23      -0.2864
     21  CB        53.9130   20.4180   15.5210 C.3    23  ALA23       0.0319
     22  N         59.3250   18.8760   20.2050 N.3    33  ASN33      -0.1225
     23  CA        58.1100   19.6620   19.9830 C.3    33  ASN33       0.1785
     24  C         56.7650   19.0010   20.2400 C.2    33  ASN33       0.2597
     25  O         55.7550   19.6860   20.1760 O.2    33  ASN33      -0.2718
     26  CB        58.1150   20.2050   18.5500 C.3    33  ASN33       0.1169
     27  CG        57.9430   19.1220   17.4950 C.2    33  ASN33       0.2627
     28  OD1       58.3900   17.9930   17.6720 O.2    33  ASN33      -0.2716
     29  ND2       57.2660   19.4610   16.3950 N.am   33  ASN33      -0.0877
     30  N         56.7180   17.6880   20.4720 N.am   34  THR34      -0.1953
     31  CA        55.4290   17.0120   20.6550 C.3    34  THR34       0.1897
     32  C         55.3460   16.1950   21.9500 C.2    34  THR34       0.2313
     33  O         54.4570   15.3620   22.1190 O.2    34  THR34      -0.2863
     34  CB        55.0590   16.1470   19.3990 C.3    34  THR34       0.1794
     35  OG1       56.1280   15.2500   19.1100 O.3    34  THR34      -0.2208
     36  CG2       54.8180   17.0440   18.1620 C.3    34  THR34       0.0378
     37  N         43.0800   11.8600   22.2830 N.3    99  ASN99      -0.1240
     38  CA        42.2440   12.6630   21.3950 C.3    99  ASN99       0.1653
     39  C         40.8870   11.9920   21.1240 C.2    99  ASN99       0.2266
     40  O         39.8340   12.6450   21.2170 O.2    99  ASN99      -0.2867
     41  CB        42.9360   12.9450   20.0540 C.3    99  ASN99       0.1155
     42  CG        44.1100   13.9210   20.1700 C.2    99  ASN99       0.2627
     43  OD1       45.0310   13.8830   19.3420 O.2    99  ASN99      -0.2716
     44  ND2       44.1040   14.7600   21.1910 N.am   99  ASN99      -0.0877
     45  N         45.6050   22.6520   26.8910 N.3   123  TYR123     -0.1241
     46  CA        45.8440   21.8470   25.6970 C.3   123  TYR123      0.1605
     47  C         44.9830   22.3580   24.5560 C.2   123  TYR123      0.2264
     48  O         43.7720   22.4830   24.6940 O.2   123  TYR123     -0.2867
     49  CB        45.5540   20.3810   26.0030 C.3   123  TYR123      0.0534
     50  CG        45.7360   19.3890   24.8550 C.ar  123  TYR123     -0.0201
     51  CD1       44.8880   18.2900   24.7330 C.ar  123  TYR123     -0.0009
     52  CD2       46.7460   19.5340   23.9220 C.ar  123  TYR123     -0.0009
     53  CE1       45.0490   17.3550   23.6750 C.ar  123  TYR123      0.0417
     54  CE2       46.9110   18.6160   22.8620 C.ar  123  TYR123      0.0417
     55  CZ        46.0730   17.5260   22.7550 C.ar  123  TYR123      0.1957
     56  OH        46.2200   16.6150   21.7060 O.3   123  TYR123     -0.2866
     57  N         53.1920    9.6650   26.0170 N.3   228  LYS228     -0.1245
     58  CA        54.1660   10.5620   26.6310 C.3   228  LYS228      0.1561
     59  C         55.1710    9.7340   27.4370 C.2   228  LYS228      0.2260
     60  O         56.0480    9.0990   26.8290 O.2   228  LYS228     -0.2867
     61  CB        53.4390   11.6480   27.4310 C.3   228  LYS228      0.0271
     62  CG        52.2970   12.3610   26.6440 C.3   228  LYS228      0.0035
     63  CD        52.7510   13.0330   25.3590 C.3   228  LYS228      0.0206
     64  CE        51.6070   13.7470   24.6640 C.3   228  LYS228      0.1093
     65  NZ        52.0570   14.4400   23.4250 N.3   228  LYS228     -0.1314
     66  N         58.1220   23.9280   20.1380 N.3   333  ARG333     -0.1245
     67  CA        56.7080   24.1560   19.8450 C.3   333  ARG333      0.1563
     68  C         56.3440   25.6170   20.0740 C.2   333  ARG333      0.2260
     69  O         56.6200   26.1720   21.1320 O.2   333  ARG333     -0.2867
     70  CB        55.8270   23.2600   20.6890 C.3   333  ARG333      0.0307
     71  CG        54.3760   23.2070   20.2650 C.3   333  ARG333      0.0489
     72  CD        54.1440   22.4270   18.9580 C.3   333  ARG333      0.2205
     73  NE        52.7540   21.9700   18.8480 N.pl3 333  ARG333     -0.0865
     74  CZ        51.8430   22.4200   17.9820 C.cat 333  ARG333      0.5346
     75  NH1       52.1340   23.3460   17.0850 N.pl3 333  ARG333      0.1354
     76  NH2       50.6080   21.9210   18.0120 N.pl3 333  ARG333      0.1354
     77  N         57.4850   26.3010   24.0100 N.3   342  ARG342     -0.1245
     78  CA        57.5150   25.1040   24.8350 C.3   342  ARG342      0.1563
     79  C         58.5250   24.1210   24.2430 C.2   342  ARG342      0.2260
     80  O         58.3990   23.7470   23.0790 O.2   342  ARG342     -0.2867
     81  CB        56.1320   24.4550   24.8920 C.3   342  ARG342      0.0307
     82  CG        55.9910   23.3060   25.9110 C.3   342  ARG342      0.0489
     83  CD        54.7340   22.4730   25.6880 C.3   342  ARG342      0.2205
     84  NE        54.8950   21.6820   24.4720 N.pl3 342  ARG342     -0.0865
     85  CZ        53.9260   21.2950   23.6440 C.cat 342  ARG342      0.5346
     86  NH1       52.6510   21.5370   23.9060 N.pl3 342  ARG342      0.1354
     87  NH2       54.2440   20.6080   22.5450 N.pl3 342  ARG342      0.1354
@<TRIPOS>BOND
     1     1     2    1
     2    20    19    2
     3     4     3    2
     4    16    15    2
     5    19    18    1
     6     3     2    1
     7     3    13   am
     8     2     5    1
     9    15    14    1
    10    15    17   am
    11    13    14    1
    12    18    17    1
    13    18    21    1
    14     5     6    1
    15     6     8   ar
    16     6     7   ar
    17    29    27   am
    18     8    10   ar
    19     7     9   ar
    20    75    74    1
    21    27    28    2
    22    27    26    1
    23    10    11   ar
    24     9    11   ar
    25    74    76    1
    26    74    73    2
    27    36    34    1
    28    11    12    1
    29    26    23    1
    30    73    72    1
    31    72    71    1
    32    35    34    1
    33    43    42    2
    34    34    31    1
    35    67    68    1
    36    67    66    1
    37    67    70    1
    38    23    22    1
    39    23    24    1
    40    41    42    1
    41    41    38    1
    42    68    69    2
    43    42    44   am
    44    25    24    2
    45    24    30   am
    46    71    70    1
    47    30    31    1
    48    31    32    1
    49    39    40    2
    50    39    38    1
    51    38    37    1
    52    56    55    1
    53    32    33    2
    54    87    85    1
    55    55    54   ar
    56    55    53   ar
    57    54    52   ar
    58    80    79    2
    59    65    64    1
    60    85    86    1
    61    85    84    2
    62    53    51   ar
    63    52    50   ar
    64    77    78    1
    65    79    78    1
    66    84    83    1
    67    47    48    2
    68    47    46    1
    69    64    63    1
    70    51    50   ar
    71    78    81    1
    72    50    49    1
    73    81    82    1
    74    63    62    1
    75    83    82    1
    76    46    49    1
    77    46    45    1
    78    57    58    1
    79    58    61    1
    80    58    59    1
    81    62    61    1
    82    60    59    2
