@<TRIPOS>MOLECULE
tmp/3cqeA00.pdb
 149 138 0 0 0
SMALL
GASTEIGER

@<TRIPOS>ATOM
      1  N          1.1040   57.9160   20.9330 N.3    13  ILE13      -0.1231
      2  CA         1.8430   56.6980   20.6460 C.3    13  ILE13       0.1692
      3  C          1.0300   55.4720   21.0370 C.2    13  ILE13       0.2592
      4  O          1.4690   54.3590   20.8110 O.2    13  ILE13      -0.2718
      5  CB         3.1780   56.6450   21.4130 C.3    13  ILE13       0.0266
      6  CG1        2.9380   56.6340   22.9070 C.3    13  ILE13       0.0019
      7  CG2        4.0370   57.8430   21.0980 C.3    13  ILE13       0.0020
      8  CD1        4.2390   56.7170   23.7330 C.3    13  ILE13       0.0001
      9  N         -0.1340   55.6690   21.6620 N.am   14  GLY14      -0.1957
     10  CA        -0.9830   54.5540   22.0870 C.3    14  GLY14       0.1869
     11  C         -2.4580   54.9380   22.1750 C.2    14  GLY14       0.2309
     12  O         -2.7860   56.0210   22.6700 O.2    14  GLY14      -0.2863
     13  N         -2.1510   57.1060   25.1130 N.3    21  VAL21      -0.1245
     14  CA        -0.8030   57.3480   25.6150 C.3    21  VAL21       0.1561
     15  C         -0.0740   58.3860   24.7600 C.2    21  VAL21       0.2260
     16  O         -0.0360   58.2790   23.5530 O.2    21  VAL21      -0.2867
     17  CB        -0.0270   56.0440   25.6960 C.3    21  VAL21       0.0252
     18  CG1        1.2970   56.2350   26.4260 C.3    21  VAL21       0.0019
     19  CG2       -0.8480   55.0730   26.4180 C.3    21  VAL21       0.0019
     20  N          6.1420   59.3490   28.8780 N.3    34  ALA34      -0.1245
     21  CA         4.9320   58.7170   28.3330 C.3    34  ALA34       0.1562
     22  C          3.8110   58.9340   29.3490 C.2    34  ALA34       0.2260
     23  O          3.9430   58.5340   30.4810 O.2    34  ALA34      -0.2867
     24  CB         5.1540   57.2590   28.1890 C.3    34  ALA34       0.0290
     25  N         -0.2200   58.1600   30.0770 N.3    36  LYS36      -0.1245
     26  CA        -1.4870   57.5290   29.7200 C.3    36  LYS36       0.1561
     27  C         -2.6160   58.3300   30.3170 C.2    36  LYS36       0.2260
     28  O         -2.6080   58.6490   31.5100 O.2    36  LYS36      -0.2867
     29  CB        -1.5490   56.0980   30.2080 C.3    36  LYS36       0.0271
     30  CG        -2.8230   55.3210   29.7910 C.3    36  LYS36       0.0035
     31  CD        -2.4590   53.8220   29.6310 C.3    36  LYS36       0.0206
     32  CE        -3.6380   52.8050   29.5280 C.3    36  LYS36       0.1093
     33  NZ        -3.2000   51.5000   28.7850 N.3    36  LYS36      -0.1314
     34  N         -3.2660   50.1180   39.8310 N.3    54  GLU54      -0.1245
     35  CA        -2.1740   50.3250   38.8780 C.3    54  GLU54       0.1567
     36  C         -1.1910   51.4040   39.4580 C.2    54  GLU54       0.2260
     37  O          0.0280   51.2410   39.4690 O.2    54  GLU54      -0.2867
     38  CB        -2.6940   50.6660   37.4610 C.3    54  GLU54       0.0388
     39  CG        -1.5870   51.0670   36.4730 C.3    54  GLU54       0.1160
     40  CD        -2.1210   51.4020   35.0400 C.2    54  GLU54       0.3649
     41  OE1       -3.3700   51.5680   34.9200 O.co2  54  GLU54      -0.2457
     42  OE2       -1.3150   51.4710   34.0540 O.co2  54  GLU54      -0.2457
     43  N          2.6920   50.8890   40.4150 N.3    58  HIS58      -0.1241
     44  CA         3.7580   51.6880   39.8710 C.3    58  HIS58       0.1621
     45  C          4.5040   52.3720   40.9790 C.2    58  HIS58       0.2264
     46  O          5.6860   52.4890   40.9200 O.2    58  HIS58      -0.2867
     47  CB         3.2170   52.7600   38.9600 C.3    58  HIS58       0.0745
     48  CG         3.3850   52.4580   37.5140 C.ar   58  HIS58       0.0817
     49  ND1        4.6040   52.1030   36.9690 N.ar   58  HIS58      -0.2268
     50  CD2        2.4920   52.4620   36.4930 C.ar   58  HIS58       0.1154
     51  CE1        4.4500   51.8950   35.6630 C.ar   58  HIS58       0.1986
     52  NE2        3.1730   52.0890   35.3530 N.ar   58  HIS58      -0.2212
     53  N          9.5260   50.0300   34.0320 N.3    68  VAL68      -0.1245
     54  CA         9.3730   51.4470   33.6380 C.3    68  VAL68       0.1561
     55  C          9.2260   52.3040   34.8850 C.2    68  VAL68       0.2260
     56  O          8.3920   51.9880   35.6900 O.2    68  VAL68      -0.2867
     57  CB         8.0520   51.7000   32.7730 C.3    68  VAL68       0.0252
     58  CG1        8.0440   53.1450   32.2740 C.3    68  VAL68       0.0019
     59  CG2        7.9750   50.8070   31.5630 C.3    68  VAL68       0.0019
     60  N         -1.4860   58.8980   34.3210 N.3    82  ILE82      -0.1245
     61  CA        -0.1810   58.5020   34.8180 C.3    82  ILE82       0.1561
     62  C          1.0630   58.8530   33.9390 C.2    82  ILE82       0.2260
     63  O          1.0920   58.6720   32.7150 O.2    82  ILE82      -0.2867
     64  CB        -0.1920   57.0430   35.3310 C.3    82  ILE82       0.0252
     65  CG1        1.2270   56.5000   35.4740 C.3    82  ILE82       0.0019
     66  CG2       -0.8790   56.1350   34.3980 C.3    82  ILE82       0.0019
     67  CD1        1.2480   55.3020   36.4220 C.3    82  ILE82       0.0001
     68  N          4.8140   58.2650   33.1910 N.3    84  ASN84      -0.1225
     69  CA         5.8910   57.2630   33.3040 C.3    84  ASN84       0.1785
     70  C          7.0800   57.6240   32.4800 C.2    84  ASN84       0.2597
     71  O          7.0210   58.5090   31.6530 O.2    84  ASN84      -0.2718
     72  CB         5.3880   55.8770   32.8690 C.3    84  ASN84       0.1169
     73  CG         4.4190   55.2760   33.9100 C.2    84  ASN84       0.2627
     74  OD1        4.3570   55.7430   35.0580 O.2    84  ASN84      -0.2716
     75  ND2        3.6150   54.3140   33.4890 N.am   84  ASN84      -0.0877
     76  N          8.1650   56.9300   32.7210 N.am   85  GLU85      -0.1965
     77  CA         9.3580   56.9780   31.9070 C.3    85  GLU85       0.1733
     78  C          9.0670   56.7540   30.4350 C.2    85  GLU85       0.2616
     79  O          8.2820   55.8580   30.0560 O.2    85  GLU85      -0.2715
     80  CB        10.3110   55.9060   32.4540 C.3    85  GLU85       0.0429
     81  CG        11.4620   55.4720   31.5760 C.3    85  GLU85       0.1163
     82  CD        12.3060   54.4260   32.2700 C.2    85  GLU85       0.3649
     83  OE1       11.8460   53.7770   33.2500 O.co2  85  GLU85      -0.2457
     84  OE2       13.4630   54.2580   31.8780 O.co2  85  GLU85      -0.2457
     85  N          9.6920   57.5400   29.5720 N.am   86  TYR86      -0.1960
     86  CA         9.5060   57.2810   28.1580 C.3    86  TYR86       0.1771
     87  C         10.6060   56.3530   27.6480 C.2    86  TYR86       0.2619
     88  O         11.7830   56.5670   27.9250 O.2    86  TYR86      -0.2715
     89  CB         9.4820   58.5960   27.3490 C.3    86  TYR86       0.0574
     90  CG         9.5310   58.3850   25.8370 C.ar   86  TYR86      -0.0198
     91  CD1        8.4330   57.8860   25.1780 C.ar   86  TYR86      -0.0009
     92  CD2       10.6640   58.7340   25.0690 C.ar   86  TYR86      -0.0009
     93  CE1        8.4220   57.7040   23.8080 C.ar   86  TYR86       0.0417
     94  CE2       10.6810   58.5560   23.6460 C.ar   86  TYR86       0.0417
     95  CZ         9.5490   58.0430   23.0380 C.ar   86  TYR86       0.1957
     96  OH         9.4660   57.8230   21.6820 O.3    86  TYR86      -0.2866
     97  N         10.2400   55.3310   26.8620 N.am   87  CYS87      -0.1968
     98  CA        11.2280   54.3660   26.3470 C.3    87  CYS87       0.1712
     99  C         11.4700   54.5690   24.8500 C.2    87  CYS87       0.2296
    100  O         10.6390   54.2130   23.9880 O.2    87  CYS87      -0.2864
    101  CB        10.8140   52.9440   26.6670 C.3    87  CYS87       0.0983
    102  SG        10.7680   52.5300   28.4490 S.3    87  CYS87      -0.0798
    103  N         12.9950   53.2490   22.5100 N.3    89  GLY89      -0.1210
    104  CA        13.0320   52.1810   21.5170 C.3    89  GLY89       0.1956
    105  C         11.6470   51.6090   21.2580 C.2    89  GLY89       0.2612
    106  O         11.4770   50.6880   20.4670 O.2    89  GLY89      -0.2717
    107  N         10.6340   52.1560   21.9140 N.am   90  GLY90      -0.1942
    108  CA         9.2880   51.6720   21.7270 C.3    90  GLY90       0.2014
    109  C          9.0770   50.2950   22.2820 C.2    90  GLY90       0.2639
    110  O          9.7960   49.8600   23.1900 O.2    90  GLY90      -0.2714
    111  N          8.0640   49.5950   21.7820 N.am   91  SER91      -0.1949
    112  CA         7.6550   48.3800   22.4730 C.3    91  SER91       0.1924
    113  C          8.3080   47.1690   21.8350 C.2    91  SER91       0.2314
    114  O          8.6720   47.1640   20.6340 O.2    91  SER91      -0.2863
    115  CB         6.1470   48.2230   22.4920 C.3    91  SER91       0.2116
    116  OG         5.6990   47.9940   21.1700 O.3    91  SER91      -0.2180
    117  N          6.3490   46.1880   18.6470 N.3    94  ASP94      -0.1239
    118  CA         6.6440   46.8020   17.3470 C.3    94  ASP94       0.1674
    119  C          7.9740   46.3440   16.7460 C.2    94  ASP94       0.2266
    120  O          8.1310   46.2700   15.5540 O.2    94  ASP94      -0.2867
    121  CB         6.5630   48.3340   17.3990 C.3    94  ASP94       0.1410
    122  CG         5.1200   48.8490   17.6830 C.2    94  ASP94       0.3668
    123  OD1        4.1120   48.1170   17.4650 O.co2  94  ASP94      -0.2456
    124  OD2        4.9750   50.0100   18.1170 O.co2  94  ASP94      -0.2456
    125  N          3.5870   43.6700   23.9040 N.3   138  SER138     -0.1217
    126  CA         3.1570   45.0640   23.9060 C.3   138  SER138      0.1889
    127  C          3.1800   45.7150   25.2950 C.2   138  SER138      0.2288
    128  O          2.8500   46.8920   25.3940 O.2   138  SER138     -0.2866
    129  CB         1.7960   45.2780   23.2520 C.3   138  SER138      0.2089
    130  OG         0.8520   44.5870   24.0300 O.3   138  SER138     -0.2183
    131  N          8.9900   47.2060   27.0160 N.3   141  PHE141     -0.1241
    132  CA         9.4270   48.4010   26.3000 C.3   141  PHE141      0.1605
    133  C         10.9180   48.4210   26.3340 C.2   141  PHE141      0.2264
    134  O         11.5360   47.7310   27.1720 O.2   141  PHE141     -0.2867
    135  CB         8.8020   49.7070   26.8890 C.3   141  PHE141      0.0534
    136  CG         7.2840   49.7040   26.8720 C.ar  141  PHE141     -0.0203
    137  CD1        6.5820   50.0810   25.7480 C.ar  141  PHE141     -0.0042
    138  CD2        6.5760   49.3150   27.9590 C.ar  141  PHE141     -0.0042
    139  CE1        5.1960   50.0780   25.7340 C.ar  141  PHE141     -0.0003
    140  CE2        5.1650   49.2980   27.9210 C.ar  141  PHE141     -0.0003
    141  CZ         4.4990   49.6490   26.8390 C.ar  141  PHE141     -0.0000
    142  N          2.9320   48.7530   31.7420 N.3   151  ASP151     -0.1239
    143  CA         1.5380   48.4060   31.9000 C.3   151  ASP151      0.1674
    144  C          1.1830   47.5070   33.1150 C.2   151  ASP151      0.2266
    145  O          0.8380   46.3210   32.9720 O.2   151  ASP151     -0.2867
    146  CB         0.9990   47.7750   30.5980 C.3   151  ASP151      0.1410
    147  CG        -0.5010   47.9710   30.4510 C.2   151  ASP151      0.3668
    148  OD1       -1.2230   47.9170   31.4830 O.co2 151  ASP151     -0.2456
    149  OD2       -0.9390   48.2060   29.3150 O.co2 151  ASP151     -0.2456
@<TRIPOS>BOND
     1   120   119    2
     2   119   118    1
     3   118   121    1
     4   118   117    1
     5   121   122    1
     6   123   122   ar
     7   122   124   ar
     8   106   105    2
     9   114   113    2
    10     2     1    1
    11     2     3    1
    12     2     5    1
    13     4     3    2
    14     3     9   am
    15     7     5    1
    16   116   115    1
    17   105   104    1
    18   105   107   am
    19     5     6    1
    20   104   103    1
    21     9    10    1
    22    96    95    1
    23   108   107    1
    24   108   109    1
    25   111   109   am
    26   111   112    1
    27   113   112    1
    28    10    11    1
    29    11    12    2
    30   109   110    2
    31   112   115    1
    32     6     8    1
    33    95    94   ar
    34    95    93   ar
    35   129   126    1
    36   129   130    1
    37    16    15    2
    38    94    92   ar
    39    93    91   ar
    40   125   126    1
    41   126   127    1
    42   100    99    2
    43    15    14    1
    44    99    98    1
    45    92    90   ar
    46    13    14    1
    47    91    90   ar
    48   127   128    2
    49    14    17    1
    50    17    19    1
    51    17    18    1
    52   139   137   ar
    53   139   141   ar
    54   137   136   ar
    55    90    89    1
    56   132   133    1
    57   132   135    1
    58   132   131    1
    59   133   134    2
    60    98   101    1
    61    98    97    1
    62   101   102    1
    63   141   140   ar
    64    97    87   am
    65   136   135    1
    66   136   138   ar
    67    89    86    1
    68    87    88    2
    69    87    86    1
    70   140   138   ar
    71    86    85    1
    72    24    21    1
    73    21    20    1
    74    21    22    1
    75    33    32    1
    76   149   147   ar
    77    22    23    2
    78    32    31    1
    79    85    78   am
    80    31    30    1
    81    26    25    1
    82    26    29    1
    83    26    27    1
    84    30    29    1
    85    79    78    2
    86    27    28    2
    87    78    77    1
    88   147   146    1
    89   147   148   ar
    90   146   143    1
    91    59    57    1
    92    81    82    1
    93    81    80    1
    94    71    70    2
    95   142   143    1
    96    84    82   ar
    97   143   144    1
    98    77    80    1
    99    77    76    1
   100    82    83   ar
   101    58    57    1
   102    70    76   am
   103    70    69    1
   104    63    62    2
   105    57    54    1
   106    72    69    1
   107    72    73    1
   108   145   144    2
   109    68    69    1
   110    75    73   am
   111    54    53    1
   112    54    55    1
   113    73    74    2
   114    62    61    1
   115    42    40   ar
   116    60    61    1
   117    66    64    1
   118    61    64    1
   119    55    56    2
   120    41    40   ar
   121    40    39    1
   122    64    65    1
   123    52    51   ar
   124    52    50   ar
   125    65    67    1
   126    51    49   ar
   127    39    38    1
   128    50    48   ar
   129    49    48   ar
   130    38    35    1
   131    48    47    1
   132    35    36    1
   133    35    34    1
   134    47    44    1
   135    36    37    2
   136    44    43    1
   137    44    45    1
   138    46    45    2
