@<TRIPOS>MOLECULE
tmp/3cqlB00.pdb
 129 121 0 0 0
SMALL
GASTEIGER

@<TRIPOS>ATOM
      1  N         -7.1820  -15.4960   20.5250 N.3    66  HIS66      -0.1226
      2  CA        -8.1350  -14.4250   20.2750 C.3    66  HIS66       0.1752
      3  C         -7.9360  -13.8310   18.8820 C.2    66  HIS66       0.2596
      4  O         -8.8980  -13.5980   18.1540 O.2    66  HIS66      -0.2718
      5  CB        -8.0560  -13.2960   21.2830 C.3    66  HIS66       0.0759
      6  CG        -8.7450  -12.0700   20.7870 C.ar   66  HIS66       0.0818
      7  ND1      -10.1200  -11.9660   20.7460 N.ar   66  HIS66      -0.2268
      8  CD2       -8.2620  -10.9600   20.1810 C.ar   66  HIS66       0.1154
      9  CE1      -10.4490  -10.8130   20.1870 C.ar   66  HIS66       0.1986
     10  NE2       -9.3430  -10.1870   19.8300 N.ar   66  HIS66      -0.2212
     11  N         -6.6820  -13.5760   18.5160 N.am   67  GLU67      -0.1965
     12  CA        -6.3630  -12.9340   17.2430 C.3    67  GLU67       0.1733
     13  C         -6.8690  -13.7450   16.0530 C.2    67  GLU67       0.2617
     14  O         -7.0960  -13.2090   14.9580 O.2    67  GLU67      -0.2715
     15  CB        -4.8510  -12.7290   17.1240 C.3    67  GLU67       0.0429
     16  CG        -4.2810  -11.7130   18.1170 C.3    67  GLU67       0.1163
     17  CD        -4.7600  -10.2960   17.8820 C.2    67  GLU67       0.3649
     18  OE1       -5.3250   -9.9980   16.8000 O.co2  67  GLU67      -0.2457
     19  OE2       -4.5580   -9.4410   18.7750 O.co2  67  GLU67      -0.2457
     20  N         -7.0370  -15.0400   16.2770 N.am   68  THR68      -0.1937
     21  CA        -7.3610  -15.9500   15.1990 C.3    68  THR68       0.2028
     22  C         -8.6590  -16.7100   15.4550 C.2    68  THR68       0.2642
     23  O         -8.9190  -17.7440   14.8290 O.2    68  THR68      -0.2714
     24  CB        -6.2260  -16.9600   14.9810 C.3    68  THR68       0.1808
     25  OG1       -5.9740  -17.6770   16.2020 O.3    68  THR68      -0.2208
     26  CG2       -4.9610  -16.2660   14.5100 C.3    68  THR68       0.0379
     27  N         -9.4700  -16.1950   16.3700 N.am   69  THR69      -0.1950
     28  CA       -10.6390  -16.9250   16.8250 C.3    69  THR69       0.1897
     29  C        -11.7380  -17.0890   15.7820 C.2    69  THR69       0.2313
     30  O        -12.0150  -16.1720   15.0030 O.2    69  THR69      -0.2863
     31  CB       -11.2570  -16.3110   18.1010 C.3    69  THR69       0.1794
     32  OG1      -12.2690  -17.2060   18.5830 O.3    69  THR69      -0.2208
     33  CG2      -11.8650  -14.9100   17.8350 C.3    69  THR69       0.0378
     34  N         -8.5650  -18.7990   12.0670 N.3    86  PHE86      -0.1241
     35  CA        -8.3320  -17.8320   10.9960 C.3    86  PHE86       0.1605
     36  C         -6.8500  -17.4910   10.8120 C.2    86  PHE86       0.2264
     37  O         -6.0360  -17.6360   11.7370 O.2    86  PHE86      -0.2867
     38  CB        -9.1420  -16.5450   11.2530 C.3    86  PHE86       0.0534
     39  CG       -10.5790  -16.6640   10.8580 C.ar   86  PHE86      -0.0203
     40  CD1      -11.0550  -16.0030    9.7430 C.ar   86  PHE86      -0.0042
     41  CD2      -11.4480  -17.4720   11.5870 C.ar   86  PHE86      -0.0042
     42  CE1      -12.3910  -16.1380    9.3620 C.ar   86  PHE86      -0.0003
     43  CE2      -12.7840  -17.6180   11.2110 C.ar   86  PHE86      -0.0003
     44  CZ       -13.2530  -16.9480   10.1000 C.ar   86  PHE86      -0.0000
     45  N         -6.0040  -14.7100    8.0840 N.3    88  LYS88      -0.1231
     46  CA        -5.9990  -13.3240    7.5910 C.3    88  LYS88       0.1693
     47  C         -7.1000  -12.5030    8.2550 C.2    88  LYS88       0.2592
     48  O         -8.2120  -12.9880    8.4790 O.2    88  LYS88      -0.2718
     49  CB        -6.1990  -13.2750    6.0740 C.3    88  LYS88       0.0285
     50  CG        -5.1320  -13.9610    5.2450 C.3    88  LYS88       0.0035
     51  CD        -5.4880  -13.8230    3.7640 C.3    88  LYS88       0.0206
     52  CE        -4.6430  -14.7330    2.9110 C.3    88  LYS88       0.1093
     53  NZ        -4.6180  -16.0880    3.4990 N.3    88  LYS88      -0.1314
     54  N         -6.7740  -11.2630    8.5990 N.am   89  GLU89      -0.1966
     55  CA        -7.7290  -10.3520    9.2200 C.3    89  GLU89       0.1733
     56  C         -9.0110  -10.2580    8.4110 C.2    89  GLU89       0.2616
     57  O         -8.9690  -10.0540    7.1930 O.2    89  GLU89      -0.2715
     58  CB        -7.0820   -8.9760    9.3520 C.3    89  GLU89       0.0429
     59  CG        -7.9850   -7.9180    9.9710 C.3    89  GLU89       0.1163
     60  CD        -7.3300   -6.5530    9.9960 C.2    89  GLU89       0.3649
     61  OE1       -6.0900   -6.4850   10.1140 O.co2  89  GLU89      -0.2457
     62  OE2       -8.0470   -5.5390    9.8910 O.co2  89  GLU89      -0.2457
     63  N        -10.1350  -10.4150    9.1060 N.am   90  ARG90      -0.1977
     64  CA       -11.4540  -10.2370    8.5230 C.3    90  ARG90       0.1597
     65  C        -11.7180   -8.7730    8.2100 C.2    90  ARG90       0.2287
     66  O        -11.4330   -7.8800    9.0270 O.2    90  ARG90      -0.2864
     67  CB       -12.5250  -10.7150    9.5070 C.3    90  ARG90       0.0334
     68  CG       -12.5960  -12.2290    9.7050 C.3    90  ARG90       0.0492
     69  CD       -13.5010  -12.6250   10.8930 C.3    90  ARG90       0.2205
     70  NE       -12.7770  -12.5430   12.1620 N.pl3  90  ARG90      -0.0865
     71  CZ       -12.5880  -13.5570   13.0010 C.cat  90  ARG90       0.5346
     72  NH1      -13.1260  -14.7530   12.7680 N.pl3  90  ARG90       0.1354
     73  NH2      -11.8710  -13.3620   14.0990 N.pl3  90  ARG90       0.1354
     74  N         -3.7110   -7.7700    9.3690 N.3   113  GLY113     -0.1225
     75  CA        -3.3210   -8.8780   10.2400 C.3   113  GLY113      0.1811
     76  C         -3.1060  -10.2040    9.5350 C.2   113  GLY113      0.2280
     77  O         -3.9450  -10.6630    8.7580 O.2   113  GLY113     -0.2866
     78  N         -1.6170  -11.7960   14.2940 N.3   118  GLN118     -0.1245
     79  CA        -2.2610  -10.8480   13.3710 C.3   118  GLN118      0.1566
     80  C         -1.4050   -9.6100   13.2120 C.2   118  GLN118      0.2260
     81  O         -1.8560   -8.4780   13.3750 O.2   118  GLN118     -0.2867
     82  CB        -3.6930  -10.5110   13.8150 C.3   118  GLN118      0.0367
     83  CG        -4.6500  -11.6860   13.6860 C.3   118  GLN118      0.0905
     84  CD        -5.0440  -11.9330   12.2390 C.2   118  GLN118      0.2608
     85  OE1       -5.8910  -11.2180   11.6910 O.2   118  GLN118     -0.2717
     86  NE2       -4.4290  -12.9300   11.6110 N.am  118  GLN118     -0.0878
     87  N          0.3550   -6.4970   12.1220 N.3   120  SER120     -0.1217
     88  CA        -0.1980   -5.4080   11.3260 C.3   120  SER120      0.1889
     89  C          0.7900   -4.2600   11.2340 C.2   120  SER120      0.2288
     90  O          1.6370   -4.1040   12.1100 O.2   120  SER120     -0.2866
     91  CB        -1.4840   -4.8690   11.9800 C.3   120  SER120      0.2089
     92  OG        -2.5110   -5.8400   12.0330 O.3   120  SER120     -0.2183
     93  N         -2.5820   -4.4210   21.2390 N.3   199  ASN199     -0.1240
     94  CA        -3.6040   -3.6310   20.5430 C.3   199  ASN199      0.1653
     95  C         -4.2930   -2.5990   21.4440 C.2   199  ASN199      0.2266
     96  O         -5.4950   -2.3280   21.3160 O.2   199  ASN199     -0.2867
     97  CB        -4.6420   -4.5690   19.9040 C.3   199  ASN199      0.1155
     98  CG        -5.3710   -3.9230   18.7360 C.2   199  ASN199      0.2627
     99  OD1       -4.7970   -3.1080   18.0050 O.2   199  ASN199     -0.2716
    100  ND2       -6.6340   -4.3040   18.5440 N.am  199  ASN199     -0.0877
    101  N         -8.1770   -1.0670   22.1030 N.3   203  GLU203     -0.1245
    102  CA        -8.8870   -1.9200   23.0510 C.3   203  GLU203      0.1567
    103  C         -8.8660   -1.5120   24.5160 C.2   203  GLU203      0.2260
    104  O         -9.7290   -1.9460   25.2780 O.2   203  GLU203     -0.2867
    105  CB        -8.3980   -3.3610   22.9340 C.3   203  GLU203      0.0388
    106  CG        -8.7260   -3.9610   21.5740 C.3   203  GLU203      0.1160
    107  CD        -8.3700   -5.4210   21.4490 C.2   203  GLU203      0.3649
    108  OE1       -8.2350   -6.1040   22.4700 O.co2 203  GLU203     -0.2457
    109  OE2       -8.2300   -5.8850   20.3050 O.co2 203  GLU203     -0.2457
    110  N        -13.4070   -7.6490   22.9510 N.3   211  GLN211     -0.1245
    111  CA       -12.0670   -8.0470   22.4770 C.3   211  GLN211      0.1566
    112  C        -11.1460   -8.4210   23.6350 C.2   211  GLN211      0.2260
    113  O        -10.5110   -9.4840   23.6390 O.2   211  GLN211     -0.2867
    114  CB       -11.4130   -6.9520   21.6290 C.3   211  GLN211      0.0367
    115  CG       -12.1930   -6.5580   20.3740 C.3   211  GLN211      0.0905
    116  CD       -12.8930   -5.2280   20.5350 C.2   211  GLN211      0.2608
    117  OE1      -12.5280   -4.2380   19.9040 O.2   211  GLN211     -0.2717
    118  NE2      -13.8860   -5.1890   21.3970 N.am  211  GLN211     -0.0878
    119  N         -9.8140  -12.3750   24.8630 N.3   215  ARG215     -0.1245
    120  CA        -8.4120  -12.7080   25.1380 C.3   215  ARG215      0.1563
    121  C         -8.3080  -13.3890   26.4930 C.2   215  ARG215      0.2260
    122  O         -7.5680  -14.3650   26.6480 O.2   215  ARG215     -0.2867
    123  CB        -7.5360  -11.4560   25.1270 C.3   215  ARG215      0.0307
    124  CG        -7.4810  -10.7390   23.7620 C.3   215  ARG215      0.0489
    125  CD        -6.8430   -9.3410   23.8750 C.3   215  ARG215      0.2205
    126  NE        -6.9150   -8.5950   22.6260 N.pl3 215  ARG215     -0.0865
    127  CZ        -6.1470   -8.8090   21.5680 C.cat 215  ARG215      0.5346
    128  NH1       -5.2090   -9.7580   21.5870 N.pl3 215  ARG215      0.1354
    129  NH2       -6.3080   -8.0560   20.4870 N.pl3 215  ARG215      0.1354
@<TRIPOS>BOND
     1    52    53    1
     2    52    51    1
     3    51    50    1
     4    50    49    1
     5    49    46    1
     6    57    56    2
     7    46    45    1
     8    46    47    1
     9    65    64    1
    10    65    66    2
    11    47    48    2
    12    47    54   am
    13    56    63   am
    14    56    55    1
    15    64    63    1
    16    64    67    1
    17    54    55    1
    18    77    76    2
    19    55    58    1
    20    58    59    1
    21    42    40   ar
    22    42    44   ar
    23    74    75    1
    24    67    68    1
    25    76    75    1
    26    68    69    1
    27    40    39   ar
    28    62    60   ar
    29    59    60    1
    30    60    61   ar
    31    44    43   ar
    32    36    35    1
    33    36    37    2
    34    39    38    1
    35    39    41   ar
    36    69    70    1
    37    35    38    1
    38    35    34    1
    39    43    41   ar
    40    89    88    1
    41    89    90    2
    42    88    91    1
    43    88    87    1
    44    86    84   am
    45    85    84    2
    46    91    92    1
    47    70    71    2
    48    84    83    1
    49    72    71    1
    50    71    73    1
    51    80    79    1
    52    80    81    2
    53    79    82    1
    54    79    78    1
    55    83    82    1
    56    26    24    1
    57    23    22    2
    58    14    13    2
    59    24    21    1
    60    24    25    1
    61    30    29    2
    62    21    22    1
    63    21    20    1
    64    22    27   am
    65    29    28    1
    66    13    20   am
    67    13    12    1
    68    27    28    1
    69    18    17   ar
    70    28    31    1
    71    15    12    1
    72    15    16    1
    73    12    11    1
    74    33    31    1
    75    17    16    1
    76    17    19   ar
    77    99    98    2
    78    31    32    1
    79     4     3    2
    80    11     3   am
    81   100    98   am
    82    98    97    1
    83     3     2    1
    84    10     8   ar
    85    10     9   ar
    86    97    94    1
    87   117   116    2
    88     8     6   ar
    89     9     7   ar
    90     2     1    1
    91     2     5    1
    92   109   107   ar
    93   115   116    1
    94   115   114    1
    95   129   127    1
    96   116   118   am
    97    94    93    1
    98    94    95    1
    99     7     6   ar
   100     6     5    1
   101    96    95    2
   102   107   106    1
   103   107   108   ar
   104   127   128    1
   105   127   126    2
   106   106   105    1
   107   114   111    1
   108   101   102    1
   109   111   110    1
   110   111   112    1
   111   126   125    1
   112   105   102    1
   113   102   103    1
   114   112   113    2
   115   124   125    1
   116   124   123    1
   117   103   104    2
   118   119   120    1
   119   123   120    1
   120   120   121    1
   121   121   122    2
