@<TRIPOS>MOLECULE
tmp/3cqlB01.pdb
 135 132 0 0 0
SMALL
GASTEIGER

@<TRIPOS>ATOM
      1  N         -6.6820  -13.5760   18.5160 N.3    67  GLU67      -0.1245
      2  CA        -6.3630  -12.9340   17.2430 C.3    67  GLU67       0.1567
      3  C         -6.8690  -13.7450   16.0530 C.2    67  GLU67       0.2260
      4  O         -7.0960  -13.2090   14.9580 O.2    67  GLU67      -0.2867
      5  CB        -4.8510  -12.7290   17.1240 C.3    67  GLU67       0.0388
      6  CG        -4.2810  -11.7130   18.1170 C.3    67  GLU67       0.1160
      7  CD        -4.7600  -10.2960   17.8820 C.2    67  GLU67       0.3649
      8  OE1       -5.3250   -9.9980   16.8000 O.co2  67  GLU67      -0.2457
      9  OE2       -4.5580   -9.4410   18.7750 O.co2  67  GLU67      -0.2457
     10  N         -0.3330  -13.7740   15.6340 N.3   117  ILE117     -0.1231
     11  CA        -0.4980  -12.4910   16.3500 C.3   117  ILE117      0.1692
     12  C         -1.2070  -11.4220   15.5050 C.2   117  ILE117      0.2592
     13  O         -1.3800  -10.2840   15.9390 O.2   117  ILE117     -0.2718
     14  CB         0.8430  -11.9560   16.9540 C.3   117  ILE117      0.0266
     15  CG1        0.5890  -11.0510   18.1670 C.3   117  ILE117      0.0019
     16  CG2        1.6810  -11.2260   15.9080 C.3   117  ILE117      0.0020
     17  CD1        0.0620  -11.7660   19.3690 C.3   117  ILE117      0.0001
     18  N         -1.6170  -11.7960   14.2940 N.am  118  GLN118     -0.1966
     19  CA        -2.2610  -10.8480   13.3710 C.3   118  GLN118      0.1733
     20  C         -1.4050   -9.6100   13.2120 C.2   118  GLN118      0.2616
     21  O         -1.8560   -8.4780   13.3750 O.2   118  GLN118     -0.2715
     22  CB        -3.6930  -10.5110   13.8150 C.3   118  GLN118      0.0408
     23  CG        -4.6500  -11.6860   13.6860 C.3   118  GLN118      0.0908
     24  CD        -5.0440  -11.9330   12.2390 C.2   118  GLN118      0.2608
     25  OE1       -5.8910  -11.2180   11.6910 O.2   118  GLN118     -0.2717
     26  NE2       -4.4290  -12.9300   11.6110 N.am  118  GLN118     -0.0878
     27  N         -0.1300   -9.8560   12.9330 N.am  119  LEU119     -0.1963
     28  CA         0.8370   -8.7960   12.7160 C.3   119  LEU119      0.1728
     29  C          0.2770   -7.7640   11.7310 C.2   119  LEU119      0.2617
     30  O         -0.2110   -8.1270   10.6550 O.2   119  LEU119     -0.2715
     31  CB         2.1440   -9.3890   12.1690 C.3   119  LEU119      0.0311
     32  CG         3.3820   -8.4970   12.2210 C.3   119  LEU119      0.0022
     33  CD1        3.9680   -8.4790   13.6440 C.3   119  LEU119      0.0001
     34  CD2        4.4190   -8.9800   11.2210 C.3   119  LEU119      0.0001
     35  N          0.3550   -6.4970   12.1220 N.am  120  SER120     -0.1936
     36  CA        -0.1980   -5.4080   11.3260 C.3   120  SER120      0.2055
     37  C          0.7900   -4.2600   11.2340 C.2   120  SER120      0.2643
     38  O          1.6370   -4.1040   12.1100 O.2   120  SER120     -0.2714
     39  CB        -1.4840   -4.8690   11.9800 C.3   120  SER120      0.2130
     40  OG        -2.5110   -5.8400   12.0330 O.3   120  SER120     -0.2179
     41  N          0.6530   -3.4620   10.1710 N.am  121  TRP121     -0.1973
     42  CA         1.4120   -2.2140    9.9510 C.3   121  TRP121      0.1640
     43  C          2.7920   -2.4210    9.3370 C.2   121  TRP121      0.2290
     44  O          3.5230   -3.3400    9.7150 O.2   121  TRP121     -0.2864
     45  CB         1.5380   -1.3590   11.2270 C.3   121  TRP121      0.0576
     46  CG         0.2220   -0.8670   11.7300 C.ar  121  TRP121      0.0006
     47  CD1       -0.5280   -1.4140   12.7250 C.ar  121  TRP121      0.0946
     48  CD2       -0.5180    0.2610   11.2440 C.ar  121  TRP121      0.0152
     49  NE1       -1.6970   -0.7050   12.8930 N.ar  121  TRP121     -0.2442
     50  CE2       -1.7140    0.3320   11.9990 C.ar  121  TRP121      0.0810
     51  CE3       -0.2910    1.2160   10.2400 C.ar  121  TRP121      0.0012
     52  CZ2       -2.6690    1.3220   11.7890 C.ar  121  TRP121      0.0191
     53  CZ3       -1.2480    2.1960   10.0290 C.ar  121  TRP121      0.0001
     54  CH2       -2.4160    2.2420   10.8000 C.ar  121  TRP121      0.0015
     55  N          5.3230   -0.7290    9.8920 N.3   123  TYR123     -0.1227
     56  CA         6.3350   -0.5420   10.9310 C.3   123  TYR123      0.1736
     57  C          6.5330   -1.7450   11.8450 C.2   123  TYR123      0.2595
     58  O          7.4370   -1.7290   12.6860 O.2   123  TYR123     -0.2718
     59  CB         6.0870    0.7460   11.7360 C.3   123  TYR123      0.0548
     60  CG         4.7490    0.8430   12.4310 C.ar  123  TYR123     -0.0200
     61  CD1        4.4850    0.1290   13.6020 C.ar  123  TYR123     -0.0009
     62  CD2        3.7630    1.6900   11.9350 C.ar  123  TYR123     -0.0009
     63  CE1        3.2550    0.2330   14.2410 C.ar  123  TYR123      0.0417
     64  CE2        2.5310    1.8140   12.5760 C.ar  123  TYR123      0.0417
     65  CZ         2.2920    1.0790   13.7250 C.ar  123  TYR123      0.1957
     66  OH         1.0820    1.1970   14.3640 O.3   123  TYR123     -0.2866
     67  N          5.7100   -2.7780   11.6740 N.am  124  ASN124     -0.1974
     68  CA         5.9580   -4.0810   12.3120 C.3   124  ASN124      0.1688
     69  C          6.5000   -5.0960   11.3060 C.2   124  ASN124      0.2292
     70  O          7.4630   -5.8060   11.5950 O.2   124  ASN124     -0.2864
     71  CB         4.6980   -4.6410   12.9900 C.3   124  ASN124      0.1181
     72  CG         4.3900   -3.9760   14.3210 C.2   124  ASN124      0.2629
     73  OD1        5.2880   -3.6000   15.0770 O.2   124  ASN124     -0.2716
     74  ND2        3.1040   -3.8660   14.6320 N.am  124  ASN124     -0.0877
     75  N          7.0700  -10.7170   17.6160 N.3   157  PHE157     -0.1241
     76  CA         6.3140   -9.6390   18.2290 C.3   157  PHE157      0.1605
     77  C          6.3170   -9.7540   19.7550 C.2   157  PHE157      0.2264
     78  O          6.5480   -8.7730   20.4580 O.2   157  PHE157     -0.2867
     79  CB         4.8760   -9.5870   17.7050 C.3   157  PHE157      0.0534
     80  CG         4.1390   -8.3690   18.1760 C.ar  157  PHE157     -0.0203
     81  CD1        4.1450   -7.2090   17.4090 C.ar  157  PHE157     -0.0042
     82  CD2        3.4760   -8.3620   19.4120 C.ar  157  PHE157     -0.0042
     83  CE1        3.5020   -6.0540   17.8510 C.ar  157  PHE157     -0.0003
     84  CE2        2.8310   -7.2030   19.8640 C.ar  157  PHE157     -0.0003
     85  CZ         2.8360   -6.0540   19.0700 C.ar  157  PHE157     -0.0000
     86  N          9.3180   -2.5780   22.1240 N.3   162  GLN162     -0.1245
     87  CA         9.2080   -1.4420   21.2200 C.3   162  GLN162      0.1566
     88  C          8.8730   -0.2310   22.0810 C.2   162  GLN162      0.2260
     89  O          7.6960    0.0690   22.2990 O.2   162  GLN162     -0.2867
     90  CB         8.1310   -1.6800   20.1530 C.3   162  GLN162      0.0367
     91  CG         8.4070   -2.8750   19.2450 C.3   162  GLN162      0.0905
     92  CD         7.6760   -2.8030   17.9130 C.2   162  GLN162      0.2608
     93  OE1        7.6410   -1.7520   17.2640 O.2   162  GLN162     -0.2717
     94  NE2        7.0940   -3.9310   17.4920 N.am  162  GLN162     -0.0878
     95  N          6.8210    0.5020   24.9970 N.3   165  LYS165     -0.1245
     96  CA         6.2940   -0.8210   25.3240 C.3   165  LYS165      0.1561
     97  C          7.4200   -1.8170   25.6330 C.2   165  LYS165      0.2260
     98  O          8.3640   -1.9540   24.8520 O.2   165  LYS165     -0.2867
     99  CB         5.4470   -1.3680   24.1710 C.3   165  LYS165      0.0271
    100  CG         4.1370   -0.6400   23.9170 C.3   165  LYS165      0.0035
    101  CD         3.5820   -1.0230   22.5660 C.3   165  LYS165      0.0206
    102  CE         2.1760   -0.4790   22.3270 C.3   165  LYS165      0.1093
    103  NZ         1.6000   -1.0800   21.0800 N.3   165  LYS165     -0.1314
    104  N         -0.2460   -5.3930   22.6240 N.3   198  ILE198     -0.1231
    105  CA        -0.6650   -5.9450   21.3420 C.3   198  ILE198      0.1692
    106  C         -1.6140   -5.0220   20.5550 C.2   198  ILE198      0.2592
    107  O         -1.4570   -4.8430   19.3460 O.2   198  ILE198     -0.2718
    108  CB        -1.2620   -7.3530   21.5360 C.3   198  ILE198      0.0266
    109  CG1       -0.1690   -8.3200   22.0090 C.3   198  ILE198      0.0019
    110  CG2       -1.9060   -7.8330   20.2360 C.3   198  ILE198      0.0020
    111  CD1       -0.7260   -9.6250   22.5890 C.3   198  ILE198      0.0001
    112  N         -2.5820   -4.4210   21.2390 N.am  199  ASN199     -0.1960
    113  CA        -3.6040   -3.6310   20.5430 C.3   199  ASN199      0.1819
    114  C         -4.2930   -2.5990   21.4440 C.2   199  ASN199      0.2622
    115  O         -5.4950   -2.3280   21.3160 O.2   199  ASN199     -0.2715
    116  CB        -4.6420   -4.5690   19.9040 C.3   199  ASN199      0.1195
    117  CG        -5.3710   -3.9230   18.7360 C.2   199  ASN199      0.2630
    118  OD1       -4.7970   -3.1080   18.0050 O.2   199  ASN199     -0.2716
    119  ND2       -6.6340   -4.3040   18.5440 N.am  199  ASN199     -0.0877
    120  N         -3.5180   -2.0270   22.3590 N.am  200  GLY200     -0.1940
    121  CA        -4.0750   -1.1570   23.4000 C.3   200  GLY200      0.2014
    122  C         -4.7310    0.1240   22.9190 C.2   200  GLY200      0.2639
    123  O         -5.7370    0.5800   23.4930 O.2   200  GLY200     -0.2714
    124  N         -4.1600    0.7100   21.8710 N.am  201  GLY201     -0.1939
    125  CA        -4.7380    1.8960   21.2490 C.3   201  GLY201      0.2014
    126  C         -6.2220    1.7560   20.9640 C.2   201  GLY201      0.2638
    127  O         -6.9990    2.6750   21.2470 O.2   201  GLY201     -0.2714
    128  N         -6.6140    0.6000   20.4260 N.am  202  LEU202     -0.1977
    129  CA        -8.0100    0.3200   20.0830 C.3   202  LEU202      0.1596
    130  C         -8.8290   -0.3490   21.1850 C.2   202  LEU202      0.2287
    131  O        -10.0590   -0.2170   21.2010 O.2   202  LEU202     -0.2864
    132  CB        -8.0830   -0.5270   18.8020 C.3   202  LEU202      0.0297
    133  CG        -7.6260    0.1860   17.5280 C.3   202  LEU202      0.0022
    134  CD1       -7.4280   -0.8090   16.3770 C.3   202  LEU202      0.0001
    135  CD2       -8.6290    1.2870   17.1520 C.3   202  LEU202      0.0001
@<TRIPOS>BOND
     1    43    44    2
     2    43    42    1
     3    55    56    1
     4    42    41    1
     5    42    45    1
     6    53    51   ar
     7    53    54   ar
     8    41    37   am
     9    51    48   ar
    10    30    29    2
    11    54    52   ar
    12    56    59    1
    13    56    57    1
    14    34    32    1
    15    45    46    1
    16    37    36    1
    17    37    38    2
    18    48    46   ar
    19    48    50   ar
    20    69    70    2
    21    69    68    1
    22    36    39    1
    23    36    35    1
    24    26    24   am
    25    67    57   am
    26    67    68    1
    27    25    24    2
    28    46    47   ar
    29    29    35   am
    30    29    28    1
    31    59    60    1
    32    52    50   ar
    33    57    58    2
    34    62    60   ar
    35    62    64   ar
    36    39    40    1
    37    50    49   ar
    38    31    32    1
    39    31    28    1
    40    32    33    1
    41    24    23    1
    42    68    71    1
    43    60    61   ar
    44    64    65   ar
    45    28    27    1
    46    47    49   ar
    47    27    20   am
    48    71    72    1
    49    20    19    1
    50    20    21    2
    51    19    22    1
    52    19    18    1
    53    61    63   ar
    54    23    22    1
    55    65    63   ar
    56    65    66    1
    57    18    12   am
    58    72    74   am
    59    72    73    2
    60     4     3    2
    61    12    13    2
    62    12    11    1
    63    10    11    1
    64    16    14    1
    65     3     2    1
    66    11    14    1
    67   134   133    1
    68     8     7   ar
    69    14    15    1
    70     5     2    1
    71     5     6    1
    72   135   133    1
    73     2     1    1
    74    93    92    2
    75    81    83   ar
    76    81    80   ar
    77    94    92   am
    78   133   132    1
    79    75    76    1
    80    79    80    1
    81    79    76    1
    82    83    85   ar
    83     7     6    1
    84     7     9   ar
    85    92    91    1
    86   118   117    2
    87    15    17    1
    88    80    82   ar
    89    76    77    1
    90   119   117   am
    91   117   116    1
    92   132   129    1
    93    85    84   ar
    94    91    90    1
    95   107   106    2
    96    82    84   ar
    97    77    78    2
    98   116   113    1
    99   129   128    1
   100   129   130    1
   101    90    87    1
   102   110   108    1
   103   128   126   am
   104   113   112    1
   105   113   114    1
   106   106   112   am
   107   106   105    1
   108   126   127    2
   109   126   125    1
   110   103   102    1
   111   130   131    2
   112    87    88    1
   113    87    86    1
   114   125   124    1
   115   115   114    2
   116   105   108    1
   117   105   104    1
   118   114   120   am
   119   108   109    1
   120   124   122   am
   121   109   111    1
   122    88    89    2
   123   102   101    1
   124   120   121    1
   125   101   100    1
   126   122   121    1
   127   122   123    2
   128   100    99    1
   129    99    96    1
   130    98    97    2
   131    95    96    1
   132    96    97    1
