@<TRIPOS>MOLECULE
tmp/3cqpC00.pdb
 76 71 0 0 0
SMALL
GASTEIGER

@<TRIPOS>ATOM
      1  N          9.7570  145.4960   48.7720 N.3     8  LYS8       -0.1231
      2  CA         8.4470  144.9780   49.1830 C.3     8  LYS8        0.1693
      3  C          8.6470  143.8900   50.2400 C.2     8  LYS8        0.2593
      4  O          9.7040  143.2740   50.2970 O.2     8  LYS8       -0.2718
      5  CB         7.6980  144.3800   47.9870 C.3     8  LYS8        0.0285
      6  CG         7.3340  145.3690   46.8820 C.3     8  LYS8        0.0035
      7  CD         6.3580  144.7360   45.8700 C.3     8  LYS8        0.0206
      8  CE         5.8900  145.7430   44.8130 C.3     8  LYS8        0.1093
      9  NZ         5.1780  146.9270   45.4030 N.3     8  LYS8       -0.1314
     10  N          7.6300  143.6650   51.0700 N.am    9  GLY9       -0.1942
     11  CA         7.6380  142.5600   52.0440 C.3     9  GLY9        0.2014
     12  C          6.2150  142.1160   52.3210 C.2     9  GLY9        0.2638
     13  O          5.2950  142.5120   51.6070 O.2     9  GLY9       -0.2714
     14  N          6.0140  141.3140   53.3610 N.am   10  ASP10      -0.1971
     15  CA         4.6710  140.8210   53.6590 C.3    10  ASP10       0.1709
     16  C          3.9470  141.6730   54.7070 C.2    10  ASP10       0.2293
     17  O          2.8900  141.2870   55.1940 O.2    10  ASP10      -0.2864
     18  CB         4.6730  139.3210   54.0260 C.3    10  ASP10       0.1436
     19  CG         5.3970  139.0230   55.3360 C.2    10  ASP10       0.3671
     20  OD1        6.1750  139.8790   55.8120 O.co2  10  ASP10      -0.2456
     21  OD2        5.1860  137.9180   55.8910 O.co2  10  ASP10      -0.2456
     22  N         14.7240  136.1030   45.5730 N.3    52  ASN52      -0.1240
     23  CA        13.5300  136.4840   46.3120 C.3    52  ASN52       0.1653
     24  C         12.4780  135.3570   46.3180 C.2    52  ASN52       0.2266
     25  O         11.3050  135.5880   46.6210 O.2    52  ASN52      -0.2867
     26  CB        12.9930  137.8230   45.7550 C.3    52  ASN52       0.1155
     27  CG        11.8860  138.4190   46.5960 C.2    52  ASN52       0.2627
     28  OD1       10.7150  138.4160   46.1970 O.2    52  ASN52      -0.2716
     29  ND2       12.2460  138.9490   47.7580 N.am   52  ASN52      -0.0877
     30  N         12.1220  133.0230   48.4360 N.3    54  ALA54      -0.1231
     31  CA        11.6030  132.8860   49.8040 C.3    54  ALA54       0.1694
     32  C         11.5080  134.2460   50.4890 C.2    54  ALA54       0.2593
     33  O         11.7920  134.3850   51.6920 O.2    54  ALA54      -0.2718
     34  CB        12.4620  131.9200   50.6150 C.3    54  ALA54       0.0304
     35  N         11.0980  135.2540   49.7210 N.am   55  GLY55      -0.1942
     36  CA        11.0300  136.6210   50.2330 C.3    55  GLY55       0.2014
     37  C         12.4420  137.1030   50.4990 C.2    55  GLY55       0.2639
     38  O         13.3510  136.8000   49.7280 O.2    55  GLY55      -0.2714
     39  N         12.6280  137.8180   51.6070 N.am   56  CYS56      -0.1953
     40  CA        13.9410  138.3510   51.9990 C.3    56  CYS56       0.1843
     41  C         14.9020  137.3070   52.5610 C.2    56  CYS56       0.2626
     42  O         16.1090  137.5410   52.6090 O.2    56  CYS56      -0.2714
     43  CB        13.7560  139.4680   53.0340 C.3    56  CYS56       0.0997
     44  SG        12.5600  140.7200   52.5050 S.3    56  CYS56      -0.0797
     45  N         14.3640  136.1750   53.0090 N.am   57  THR57      -0.1950
     46  CA        15.1680  135.1130   53.6300 C.3    57  THR57       0.1897
     47  C         16.2080  134.5520   52.6560 C.2    57  THR57       0.2313
     48  O         17.3370  134.2320   53.0480 O.2    57  THR57      -0.2863
     49  CB        14.2660  133.9670   54.1350 C.3    57  THR57       0.1794
     50  OG1       13.1920  134.5220   54.9070 O.3    57  THR57      -0.2208
     51  CG2       15.0570  132.9590   54.9870 C.3    57  THR57       0.0378
     52  N         13.9710  141.0530   58.5400 N.3   120  ARG120     -0.1231
     53  CA        14.0240  141.7070   57.2500 C.3   120  ARG120      0.1694
     54  C         12.5810  142.0790   56.9140 C.2   120  ARG120      0.2591
     55  O         11.7230  141.2060   56.7660 O.2   120  ARG120     -0.2718
     56  CB        14.6370  140.7570   56.2170 C.3   120  ARG120      0.0321
     57  CG        15.9680  140.1730   56.6810 C.3   120  ARG120      0.0489
     58  CD        16.5470  139.1510   55.7200 C.3   120  ARG120      0.2205
     59  NE        17.8010  138.6130   56.2430 N.pl3 120  ARG120     -0.0865
     60  CZ        18.6240  137.8020   55.5770 C.cat 120  ARG120      0.5346
     61  NH1       18.3410  137.4200   54.3380 N.pl3 120  ARG120      0.1354
     62  NH2       19.7460  137.3750   56.1600 N.pl3 120  ARG120      0.1354
     63  N         12.3120  143.3760   56.8430 N.am  121  LEU121     -0.1980
     64  CA        10.9430  143.8770   56.6710 C.3   121  LEU121      0.1596
     65  C         10.5000  143.9550   55.2160 C.2   121  LEU121      0.2287
     66  O          9.3390  143.6770   54.8890 O.2   121  LEU121     -0.2864
     67  CB        10.7930  145.2590   57.3230 C.3   121  LEU121      0.0297
     68  CG        11.0790  145.3540   58.8240 C.3   121  LEU121      0.0022
     69  CD1       10.6120  146.7040   59.3570 C.3   121  LEU121      0.0001
     70  CD2       10.4140  144.2210   59.6020 C.3   121  LEU121      0.0001
     71  N         12.3850  143.9530   50.9310 N.3   123  CYS123     -0.1235
     72  CA        13.5830  143.8170   50.1190 C.3   123  CYS123      0.1677
     73  C         13.2240  143.8210   48.6420 C.2   123  CYS123      0.2270
     74  O         12.0590  143.7250   48.2840 O.2   123  CYS123     -0.2867
     75  CB        14.2990  142.5170   50.4590 C.3   123  CYS123      0.0956
     76  SG        13.3190  141.0620   50.0470 S.3   123  CYS123     -0.0801
@<TRIPOS>BOND
     1     8     9    1
     2     8     7    1
     3    22    23    1
     4    26    23    1
     5    26    27    1
     6     7     6    1
     7    28    27    2
     8    23    24    1
     9    24    25    2
    10    27    29   am
    11     6     5    1
    12     5     2    1
    13    74    73    2
    14    30    31    1
    15    73    72    1
    16     1     2    1
    17     2     3    1
    18    35    36    1
    19    35    32   am
    20    38    37    2
    21    31    32    1
    22    31    34    1
    23    76    75    1
    24    72    75    1
    25    72    71    1
    26    36    37    1
    27     3     4    2
    28     3    10   am
    29    32    33    2
    30    37    39   am
    31    10    11    1
    32    39    40    1
    33    13    12    2
    34    40    41    1
    35    40    43    1
    36    11    12    1
    37    12    14   am
    38    44    43    1
    39    41    42    2
    40    41    45   am
    41    47    48    2
    42    47    46    1
    43    45    46    1
    44    14    15    1
    45    46    49    1
    46    15    18    1
    47    15    16    1
    48    18    19    1
    49    49    50    1
    50    49    51    1
    51    61    60    1
    52    16    17    2
    53    66    65    2
    54    65    64    1
    55    19    20   ar
    56    19    21   ar
    57    60    62    1
    58    60    59    2
    59    58    59    1
    60    58    57    1
    61    56    57    1
    62    56    53    1
    63    64    63    1
    64    64    67    1
    65    55    54    2
    66    63    54   am
    67    54    53    1
    68    53    52    1
    69    67    68    1
    70    68    69    1
    71    68    70    1
