@<TRIPOS>MOLECULE
tmp/3cquA01.pdb
 156 147 0 0 0
SMALL
GASTEIGER

@<TRIPOS>ATOM
      1  N          9.7550    7.8450   13.4540 N.3    13  LEU13      -0.1231
      2  CA         9.1240    8.2180   14.6870 C.3    13  LEU13       0.1696
      3  C          9.7640    7.5230   15.8800 C.2    13  LEU13       0.2631
      4  O          9.7090    8.0580   16.9950 O.2    13  LEU13      -0.2714
      5  CB         7.6920    7.8100   14.6630 C.3    13  LEU13       0.0284
      6  CG         6.9120    8.1190   13.4230 C.3    13  LEU13       0.0019
      7  CD1        5.4970    7.4910   13.5970 C.3    13  LEU13       0.0001
      8  CD2        6.8580    9.6290   13.1920 C.3    13  LEU13       0.0001
      9  N         10.3370    6.3340   15.6570 N.am   14  GLY14      -0.1732
     10  CA        11.0160    5.6030   16.7110 C.2    14  GLY14       0.1340
     11  C         11.8010    4.3700   16.2810 C.2    14  GLY14       0.2521
     12  O         11.6390    3.8330   15.1870 O.2    14  GLY14      -0.2816
     13  N         12.2090   -3.1280   18.9590 N.3    18  PHE18      -0.1241
     14  CA        10.9370   -3.4370   18.2560 C.3    18  PHE18       0.1605
     15  C         11.0270   -3.2160   16.7050 C.2    18  PHE18       0.2264
     16  O         10.0200   -3.2690   15.9880 O.2    18  PHE18      -0.2867
     17  CB         9.7870   -2.6150   18.9210 C.3    18  PHE18       0.0534
     18  CG        10.0530   -1.0890   18.9960 C.ar   18  PHE18      -0.0203
     19  CD1        9.8540   -0.2630   17.8960 C.ar   18  PHE18      -0.0042
     20  CD2       10.5170   -0.5050   20.1660 C.ar   18  PHE18      -0.0042
     21  CE1       10.1220    1.0970   17.9830 C.ar   18  PHE18      -0.0003
     22  CE2       10.7680    0.8520   20.2450 C.ar   18  PHE18      -0.0003
     23  CZ        10.5730    1.6440   19.1970 C.ar   18  PHE18      -0.0000
     24  N          9.8840    2.2800   13.3320 N.3    21  VAL21      -0.1245
     25  CA         8.5140    2.7200   13.0670 C.3    21  VAL21       0.1561
     26  C          8.6280    3.9910   12.2660 C.2    21  VAL21       0.2260
     27  O          9.3160    4.9050   12.6790 O.2    21  VAL21      -0.2867
     28  CB         7.6720    3.0180   14.3540 C.3    21  VAL21       0.0252
     29  CG1        6.2590    3.5230   13.9830 C.3    21  VAL21       0.0019
     30  CG2        7.5520    1.8220   15.2440 C.3    21  VAL21       0.0019
     31  N          1.5240    4.4440   10.5350 N.3    34  ALA34      -0.1245
     32  CA         2.7630    4.0690   11.1810 C.3    34  ALA34       0.1562
     33  C          3.0550    2.6680   10.7050 C.2    34  ALA34       0.2260
     34  O          2.2500    1.7370   10.9010 O.2    34  ALA34      -0.2867
     35  CB         2.5740    4.0730   12.6550 C.3    34  ALA34       0.0290
     36  N          5.6280   -0.3510   11.1110 N.3    36  LYS36      -0.1245
     37  CA         6.6020   -0.9920   11.9870 C.3    36  LYS36       0.1561
     38  C          7.2010   -2.0850   11.1040 C.2    36  LYS36       0.2260
     39  O          6.5060   -2.9040   10.5430 O.2    36  LYS36      -0.2867
     40  CB         5.9460   -1.5500   13.2500 C.3    36  LYS36       0.0271
     41  CG         6.8800   -1.6910   14.5110 C.3    36  LYS36       0.0035
     42  CD         6.5290   -2.9470   15.3590 C.3    36  LYS36       0.0206
     43  CE         7.4000   -3.1120   16.6000 C.3    36  LYS36       0.1093
     44  NZ         7.7920   -4.5660   17.0430 N.3    36  LYS36      -0.1314
     45  N         -4.1800    0.0650   18.7960 N.3    68  THR68      -0.1218
     46  CA        -3.8780    0.5510   17.4850 C.3    68  THR68       0.1862
     47  C         -4.3610   -0.5140   16.5080 C.2    68  THR68       0.2287
     48  O         -3.8150   -1.6110   16.4920 O.2    68  THR68      -0.2866
     49  CB        -2.3770    0.6310   17.1960 C.3    68  THR68       0.1770
     50  OG1       -1.7230   -0.5590   17.6500 O.3    68  THR68      -0.2211
     51  CG2       -1.6850    1.7440   17.9350 C.3    68  THR68       0.0375
     52  N          0.0010    0.2030   10.5980 N.3    84  MET84      -0.1230
     53  CA        -1.0300    0.4030   11.5990 C.3    84  MET84       0.1702
     54  C         -1.4980    1.8190   11.5810 C.2    84  MET84       0.2592
     55  O         -0.8150    2.7030   11.1320 O.2    84  MET84      -0.2718
     56  CB        -0.5040    0.0860   12.9870 C.3    84  MET84       0.0401
     57  CG        -0.0170   -1.3700   13.1820 C.3    84  MET84       0.0596
     58  SD         0.9320   -1.4900   14.6790 S.3    84  MET84      -0.1393
     59  CE         2.4430   -0.8530   14.2610 C.3    84  MET84       0.0692
     60  N         -2.6910    2.0110   12.0800 N.am   85  GLU85      -0.1966
     61  CA        -3.2660    3.3130   12.2850 C.3    85  GLU85       0.1733
     62  C         -2.2570    4.2010   12.9960 C.2    85  GLU85       0.2616
     63  O         -1.6580    3.7660   13.9670 O.2    85  GLU85      -0.2715
     64  CB        -4.5520    3.0700   13.0930 C.3    85  GLU85       0.0429
     65  CG        -5.2650    4.2210   13.7970 C.3    85  GLU85       0.1163
     66  CD        -6.3330    3.6890   14.7430 C.2    85  GLU85       0.3649
     67  OE1       -5.9310    2.9310   15.7620 O.co2  85  GLU85      -0.2457
     68  OE2       -7.5600    4.0550   14.4250 O.co2  85  GLU85      -0.2457
     69  N         -2.0750    5.4320   12.5000 N.am   86  TYR86      -0.1960
     70  CA        -1.0940    6.3800   13.0200 C.3    86  TYR86       0.1771
     71  C         -1.6190    7.2310   14.1910 C.2    86  TYR86       0.2619
     72  O         -2.5790    7.9790   14.0290 O.2    86  TYR86      -0.2715
     73  CB        -0.6800    7.3180   11.8900 C.3    86  TYR86       0.0574
     74  CG         0.1600    8.5320   12.2740 C.ar   86  TYR86      -0.0198
     75  CD1        1.2970    8.4010   13.0720 C.ar   86  TYR86      -0.0009
     76  CD2       -0.1610    9.7990   11.7950 C.ar   86  TYR86      -0.0009
     77  CE1        2.0800    9.5100   13.3760 C.ar   86  TYR86       0.0417
     78  CE2        0.5980   10.8920   12.0870 C.ar   86  TYR86       0.0417
     79  CZ         1.7270   10.7450   12.8920 C.ar   86  TYR86       0.1957
     80  OH         2.5150   11.8270   13.1970 O.3    86  TYR86      -0.2866
     81  N         -0.9260    7.1280   15.3350 N.am   87  ALA87      -0.1977
     82  CA        -1.2120    7.8960   16.5900 C.3    87  ALA87       0.1597
     83  C         -0.4440    9.2220   16.6820 C.2    87  ALA87       0.2287
     84  O          0.7360    9.3480   16.9660 O.2    87  ALA87      -0.2864
     85  CB        -0.9650    7.0270   17.8210 C.3    87  ALA87       0.0319
     86  N          4.2170    9.7250   21.7530 N.3    91  GLU91      -0.1245
     87  CA         4.4090    8.7800   22.8740 C.3    91  GLU91       0.1567
     88  C          4.1200    9.4130   24.1800 C.2    91  GLU91       0.2260
     89  O          4.3850   10.5680   24.3850 O.2    91  GLU91      -0.2867
     90  CB         5.7650    8.0290   22.9250 C.3    91  GLU91       0.0388
     91  CG         6.8690    8.4450   22.0250 C.3    91  GLU91       0.1160
     92  CD         8.1970    7.7510   22.3140 C.2    91  GLU91       0.3649
     93  OE1        8.2490    6.5390   22.8430 O.co2  91  GLU91      -0.2457
     94  OE2        9.1780    8.4810   21.9650 O.co2  91  GLU91      -0.2457
     95  N          6.2000    3.1810   27.5010 N.3   135  GLU135     -0.1231
     96  CA         6.7440    3.1990   26.1610 C.3   135  GLU135      0.1699
     97  C          5.8240    2.5920   25.1220 C.2   135  GLU135      0.2592
     98  O          5.9280    2.9590   23.9480 O.2   135  GLU135     -0.2718
     99  CB         8.1210    2.5100   26.1100 C.3   135  GLU135      0.0402
    100  CG         9.2610    3.2940   26.7590 C.3   135  GLU135      0.1161
    101  CD         9.5220    2.8890   28.1970 C.2   135  GLU135      0.3649
    102  OE1        8.6220    2.5730   29.0590 O.co2 135  GLU135     -0.2457
    103  OE2       10.6730    2.8300   28.4810 O.co2 135  GLU135     -0.2457
    104  N          4.8970    1.7220   25.5280 N.am  136  ASN136     -0.1974
    105  CA         3.9590    1.1090   24.6020 C.3   136  ASN136      0.1688
    106  C          2.6570    1.8700   24.5100 C.2   136  ASN136      0.2292
    107  O          1.6710    1.3780   23.9700 O.2   136  ASN136     -0.2864
    108  CB         3.6810   -0.3570   24.9530 C.3   136  ASN136      0.1181
    109  CG         4.9120   -1.2760   24.7830 C.2   136  ASN136      0.2629
    110  OD1        5.9770   -0.8460   24.4200 O.2   136  ASN136     -0.2716
    111  ND2        4.7380   -2.5490   25.0870 N.am  136  ASN136     -0.0877
    112  N          0.7120    5.1470   23.1370 N.3   138  MET138     -0.1245
    113  CA         0.6140    6.3090   22.3250 C.3   138  MET138      0.1570
    114  C         -0.6370    7.1490   22.7270 C.2   138  MET138      0.2261
    115  O         -1.3990    6.8130   23.6980 O.2   138  MET138     -0.2867
    116  CB         0.5840    5.9210   20.8190 C.3   138  MET138      0.0387
    117  CG         1.7540    4.9110   20.3590 C.3   138  MET138      0.0595
    118  SD         3.4600    5.5450   20.7740 S.3   138  MET138     -0.1393
    119  CE         4.0600    4.0690   21.4930 C.3   138  MET138      0.0692
    120  N          0.0830   -0.2240   21.8270 N.3   148  THR148     -0.1203
    121  CA         0.7050   -0.9100   20.7020 C.3   148  THR148      0.1994
    122  C          1.6400   -2.0110   21.1480 C.2   148  THR148      0.2617
    123  O          1.9520   -2.1180   22.3020 O.2   148  THR148     -0.2717
    124  CB         1.4430    0.1060   19.7930 C.3   148  THR148      0.1784
    125  OG1        1.6130   -0.4620   18.4860 O.3   148  THR148     -0.2211
    126  CG2        2.9100    0.4700   20.3090 C.3   148  THR148      0.0376
    127  N          2.1310   -2.7720   20.1800 N.am  149  ASP149     -0.1973
    128  CA         3.0820   -3.8350   20.3780 C.3   149  ASP149      0.1709
    129  C          2.4220   -5.0710   21.0000 C.2   149  ASP149      0.2293
    130  O          2.1720   -5.1200   22.2120 O.2   149  ASP149     -0.2864
    131  CB         4.2480   -3.3110   21.2330 C.3   149  ASP149      0.1436
    132  CG         5.5400   -3.9430   20.8700 C.2   149  ASP149      0.3671
    133  OD1        5.5310   -4.9550   20.1670 O.co2 149  ASP149     -0.2456
    134  OD2        6.6320   -3.4870   21.2410 O.co2 149  ASP149     -0.2456
    135  N          6.7700   13.6350   18.8930 N.3   294  PHE294     -0.1241
    136  CA         7.6610   12.5060   18.7600 C.3   294  PHE294      0.1605
    137  C          9.0640   12.9680   19.0640 C.2   294  PHE294      0.2264
    138  O          9.4110   14.1130   18.8270 O.2   294  PHE294     -0.2867
    139  CB         7.6060   11.9010   17.3620 C.3   294  PHE294      0.0534
    140  CG         6.3170   11.2060   17.0610 C.ar  294  PHE294     -0.0203
    141  CD1        5.3440   11.8220   16.2540 C.ar  294  PHE294     -0.0042
    142  CD2        6.0670    9.9210   17.5730 C.ar  294  PHE294     -0.0042
    143  CE1        4.1640   11.1990   15.9750 C.ar  294  PHE294     -0.0003
    144  CE2        4.8750    9.2710   17.2960 C.ar  294  PHE294     -0.0003
    145  CZ         3.9120    9.9200   16.4820 C.ar  294  PHE294     -0.0000
    146  N         15.0400   10.6480   16.7600 N.3   298  PHE298     -0.1241
    147  CA        14.4460    9.8490   15.6820 C.3   298  PHE298      0.1605
    148  C         13.8650   10.6640   14.4860 C.2   298  PHE298      0.2264
    149  O         14.1990   10.4000   13.3250 O.2   298  PHE298     -0.2867
    150  CB        13.3690    8.9370   16.2950 C.3   298  PHE298      0.0534
    151  CG        13.8680    8.0940   17.4450 C.ar  298  PHE298     -0.0203
    152  CD1       13.3250    8.2300   18.7170 C.ar  298  PHE298     -0.0042
    153  CD2       14.8940    7.1540   17.2520 C.ar  298  PHE298     -0.0042
    154  CE1       13.7960    7.4470   19.7810 C.ar  298  PHE298     -0.0003
    155  CE2       15.3790    6.3770   18.3040 C.ar  298  PHE298     -0.0003
    156  CZ        14.8410    6.5290   19.5700 C.ar  298  PHE298     -0.0000
@<TRIPOS>BOND
     1    31    32    1
     2    39    38    2
     3    52    53    1
     4    33    34    2
     5    33    32    1
     6    38    37    1
     7    36    37    1
     8    55    54    2
     9    32    35    1
    10    54    53    1
    11    54    60   am
    12    53    56    1
    13    76    78   ar
    14    76    74   ar
    15    73    74    1
    16    73    70    1
    17    37    40    1
    18    60    61    1
    19    78    79   ar
    20    26    27    2
    21    26    25    1
    22    74    75   ar
    23    61    62    1
    24    61    64    1
    25    69    62   am
    26    69    70    1
    27    79    80    1
    28    79    77   ar
    29    56    57    1
    30    62    63    2
    31    70    71    1
    32    25    24    1
    33    25    28    1
    34    75    77   ar
    35    64    65    1
    36    57    58    1
    37     8     6    1
    38    40    41    1
    39   149   148    2
    40     6     7    1
    41     6     5    1
    42     1     2    1
    43    65    66    1
    44    29    28    1
    45    72    71    2
    46    71    81   am
    47    59    58    1
    48    28    30    1
    49    68    66   ar
    50   148   147    1
    51    41    42    1
    52     5     2    1
    53     2     3    1
    54    66    67   ar
    55    12    11    2
    56    81    82    1
    57    42    43    1
    58     9     3    1
    59     9    10    2
    60   147   150    1
    61   147   146    1
    62     3     4    2
    63   143   141   ar
    64   143   145   ar
    65    16    15    2
    66   141   140   ar
    67    11    10    1
    68   150   151    1
    69   145   144   ar
    70    48    47    2
    71    47    46    1
    72    82    83    1
    73    82    85    1
    74    43    44    1
    75    83    84    2
    76    15    14    1
    77   140   139    1
    78   140   142   ar
    79    49    46    1
    80    49    50    1
    81    49    51    1
    82   153   151   ar
    83   153   155   ar
    84   144   142   ar
    85   139   136    1
    86   151   152   ar
    87    46    45    1
    88    19    21   ar
    89    19    18   ar
    90    21    23   ar
    91    14    17    1
    92    14    13    1
    93   155   156   ar
    94   125   124    1
    95   152   154   ar
    96   136   135    1
    97   136   137    1
    98   138   137    2
    99    17    18    1
   100    18    20   ar
   101    23    22   ar
   102   156   154   ar
   103   124   126    1
   104   124   121    1
   105    20    22   ar
   106   133   132   ar
   107   127   128    1
   108   127   122   am
   109   117   118    1
   110   117   116    1
   111   128   129    1
   112   128   131    1
   113   121   122    1
   114   121   120    1
   115   118   119    1
   116   116   113    1
   117   132   131    1
   118   132   134   ar
   119   129   130    2
   120   122   123    2
   121    86    87    1
   122    94    92   ar
   123    91    92    1
   124    91    90    1
   125    92    93   ar
   126   113   114    1
   127   113   112    1
   128   114   115    2
   129    87    90    1
   130    87    88    1
   131    98    97    2
   132   107   106    2
   133    88    89    2
   134   110   109    2
   135   106   105    1
   136   105   108    1
   137   105   104    1
   138   109   108    1
   139   109   111   am
   140    97   104   am
   141    97    96    1
   142    99    96    1
   143    99   100    1
   144    96    95    1
   145   100   101    1
   146   101   103   ar
   147   101   102   ar
