@<TRIPOS>MOLECULE
tmp/3cqvA00.pdb
 204 201 0 0 0
SMALL
GASTEIGER

@<TRIPOS>ATOM
      1  N         59.1650   14.5600   69.3840 N.3     1  HIS1       -0.1226
      2  CA        58.9020   14.5690   67.9020 C.3     1  HIS1        0.1752
      3  C         59.1810   13.2430   67.1750 C.2     1  HIS1        0.2596
      4  O         60.0500   12.4510   67.5690 O.2     1  HIS1       -0.2718
      5  CB        59.6630   15.7150   67.2180 C.3     1  HIS1        0.0759
      6  CG        59.4280   17.0500   67.8590 C.ar    1  HIS1        0.0818
      7  ND1       60.3510   17.6510   68.6910 N.ar    1  HIS1       -0.2268
      8  CD2       58.3630   17.8850   67.8100 C.ar    1  HIS1        0.1154
      9  CE1       59.8740   18.8140   69.1050 C.ar    1  HIS1        0.1986
     10  NE2       58.6660   18.9730   68.5950 N.ar    1  HIS1       -0.2212
     11  N         58.4230   13.0360   66.1070 N.am    2  LEU2       -0.1966
     12  CA        58.5700   11.8920   65.2220 C.3     2  LEU2        0.1728
     13  C         58.6440   12.4860   63.8010 C.2     2  LEU2        0.2616
     14  O         57.6170   12.7670   63.1690 O.2     2  LEU2       -0.2715
     15  CB        57.3910   10.9160   65.4510 C.3     2  LEU2        0.0311
     16  CG        56.9520    9.7610   64.5360 C.3     2  LEU2        0.0022
     17  CD1       58.0030    9.3150   63.5350 C.3     2  LEU2        0.0001
     18  CD2       56.4420    8.5950   65.3600 C.3     2  LEU2        0.0001
     19  N         59.8700   12.6750   63.3130 N.am    3  VAL3       -0.1963
     20  CA        60.0840   13.5030   62.1260 C.3     3  VAL3        0.1727
     21  C         60.0550   12.7010   60.8180 C.2     3  VAL3        0.2616
     22  O         60.7080   13.0570   59.8310 O.2     3  VAL3       -0.2715
     23  CB        61.3500   14.3800   62.2310 C.3     3  VAL3        0.0290
     24  CG1       61.1750   15.4450   63.3440 C.3     3  VAL3        0.0023
     25  CG2       62.6430   13.5510   62.4570 C.3     3  VAL3        0.0023
     26  N         59.2960   11.6190   60.8180 N.am    4  CYS4       -0.1954
     27  CA        59.1570   10.7990   59.6000 C.3     4  CYS4        0.1828
     28  C         57.8610   11.1770   58.9180 C.2     4  CYS4        0.2467
     29  O         56.7990   11.1540   59.5780 O.2     4  CYS4       -0.2730
     30  CB        59.1300    9.3350   59.9980 C.3     4  CYS4        0.0996
     31  SG        58.8000    8.2060   58.6620 S.3     4  CYS4       -0.0797
     32  N         57.9130   11.5550   57.6180 N.am    5  PRO5       -0.2726
     33  CA        56.7070   11.9430   56.8900 C.3     5  PRO5        0.1402
     34  C         55.6860   10.8290   56.6460 C.2     5  PRO5        0.2269
     35  O         54.6380   11.1040   56.1300 O.2     5  PRO5       -0.2865
     36  CB        57.2530   12.4910   55.5650 C.3     5  PRO5        0.0296
     37  CG        58.5470   11.7650   55.3840 C.3     5  PRO5        0.0237
     38  CD        59.1150   11.7220   56.7710 C.3     5  PRO5        0.0939
     39  N         53.3680    4.2810   68.8130 N.3    21  TRP21      -0.1241
     40  CA        53.5720    3.3590   67.6790 C.3    21  TRP21       0.1605
     41  C         52.2860    2.9190   66.9730 C.2    21  TRP21       0.2264
     42  O         52.2390    2.8300   65.7330 O.2    21  TRP21      -0.2867
     43  CB        54.4190    2.1580   68.0680 C.3    21  TRP21       0.0550
     44  CG        55.0130    1.5540   66.8400 C.ar   21  TRP21       0.0003
     45  CD1       54.5680    0.4550   66.1550 C.ar   21  TRP21       0.0946
     46  CD2       56.1300    2.0620   66.1110 C.ar   21  TRP21       0.0152
     47  NE1       55.3710    0.2340   65.0490 N.ar   21  TRP21      -0.2442
     48  CE2       56.3310    1.2120   65.0010 C.ar   21  TRP21       0.0810
     49  CE3       56.9920    3.1480   66.2960 C.ar   21  TRP21       0.0012
     50  CZ2       57.3620    1.4190   64.0780 C.ar   21  TRP21       0.0191
     51  CZ3       58.0290    3.3430   65.3820 C.ar   21  TRP21       0.0001
     52  CH2       58.1970    2.4830   64.2890 C.ar   21  TRP21       0.0015
     53  N         51.0660    5.7680   64.9080 N.3    24  PHE24      -0.1241
     54  CA        51.9950    5.8790   63.7580 C.3    24  PHE24       0.1605
     55  C         51.6860    4.7670   62.7400 C.2    24  PHE24       0.2264
     56  O         51.5570    5.0250   61.5390 O.2    24  PHE24      -0.2867
     57  CB        53.4320    5.7900   64.2850 C.3    24  PHE24       0.0534
     58  CG        54.5050    5.9770   63.2300 C.ar   24  PHE24      -0.0203
     59  CD1       54.3080    6.8550   62.1470 C.ar   24  PHE24      -0.0042
     60  CD2       55.7160    5.3100   63.3520 C.ar   24  PHE24      -0.0042
     61  CE1       55.3090    7.0350   61.1850 C.ar   24  PHE24      -0.0003
     62  CE2       56.7450    5.4750   62.3750 C.ar   24  PHE24      -0.0003
     63  CZ        56.5310    6.3380   61.2980 C.ar   24  PHE24      -0.0000
     64  N         51.3160    4.6690   58.5400 N.3    27  PHE27      -0.1241
     65  CA        52.2380    4.0360   57.5680 C.3    27  PHE27       0.1605
     66  C         51.7620    2.6820   56.9960 C.2    27  PHE27       0.2264
     67  O         52.1870    2.2770   55.9020 O.2    27  PHE27      -0.2867
     68  CB        53.6750    3.9540   58.1290 C.3    27  PHE27       0.0534
     69  CG        53.8840    2.9260   59.2390 C.ar   27  PHE27      -0.0203
     70  CD1       53.7780    1.5510   58.9890 C.ar   27  PHE27      -0.0042
     71  CD2       54.2770    3.3340   60.5100 C.ar   27  PHE27      -0.0042
     72  CE1       53.9920    0.6120   59.9940 C.ar   27  PHE27      -0.0003
     73  CE2       54.5030    2.3820   61.5480 C.ar   27  PHE27      -0.0003
     74  CZ        54.3540    1.0320   61.2810 C.ar   27  PHE27      -0.0000
     75  N         52.3490    0.4900   53.3450 N.3    31  VAL31      -0.1245
     76  CA        53.0550   -0.7870   53.3630 C.3    31  VAL31       0.1561
     77  C         52.2430   -1.8380   52.6240 C.2    31  VAL31       0.2260
     78  O         52.7850   -2.5960   51.8220 O.2    31  VAL31      -0.2867
     79  CB        53.4250   -1.2480   54.7880 C.3    31  VAL31       0.0252
     80  CG1       53.9890   -2.6850   54.7760 C.3    31  VAL31       0.0019
     81  CG2       54.4530   -0.3020   55.3880 C.3    31  VAL31       0.0019
     82  N         60.7000   -2.8590   51.0630 N.3    60  THR60      -0.1203
     83  CA        59.5260   -2.0070   51.2140 C.3    60  THR60       0.1994
     84  C         59.9430   -0.5480   51.4510 C.2    60  THR60       0.2617
     85  O         59.3840    0.3680   50.8690 O.2    60  THR60      -0.2717
     86  CB        58.6270   -2.5100   52.3680 C.3    60  THR60       0.1784
     87  OG1       57.9450   -3.6910   51.9250 O.3    60  THR60      -0.2211
     88  CG2       57.6110   -1.4370   52.7640 C.3    60  THR60       0.0376
     89  N         60.9460   -0.3280   52.3020 N.am   61  PHE61      -0.1975
     90  CA        61.3730    1.0480   52.5090 C.3    61  PHE61       0.1639
     91  C         61.8430    1.7110   51.2190 C.2    61  PHE61       0.2290
     92  O         61.5190    2.8540   50.9770 O.2    61  PHE61      -0.2864
     93  CB        62.5070    1.1590   53.5360 C.3    61  PHE61       0.0560
     94  CG        63.1020    2.5480   53.5750 C.ar   61  PHE61      -0.0200
     95  CD1       62.4970    3.5640   54.3420 C.ar   61  PHE61      -0.0042
     96  CD2       64.2260    2.8550   52.8040 C.ar   61  PHE61      -0.0042
     97  CE1       63.0250    4.8620   54.3600 C.ar   61  PHE61      -0.0003
     98  CE2       64.7560    4.1680   52.8120 C.ar   61  PHE61      -0.0003
     99  CZ        64.1550    5.1600   53.5910 C.ar   61  PHE61      -0.0000
    100  N         58.8910    2.5970   48.9170 N.3    64  LEU64      -0.1245
    101  CA        58.2110    3.7690   49.4130 C.3    64  LEU64       0.1561
    102  C         59.0660    5.0400   49.2450 C.2    64  LEU64       0.2260
    103  O         58.5300    6.1090   49.0080 O.2    64  LEU64      -0.2867
    104  CB        57.8930    3.5650   50.8990 C.3    64  LEU64       0.0270
    105  CG        56.7990    2.5030   51.1430 C.3    64  LEU64       0.0019
    106  CD1       56.5860    2.3090   52.6210 C.3    64  LEU64       0.0001
    107  CD2       55.4880    2.9030   50.4530 C.3    64  LEU64       0.0001
    108  N         57.3980    7.9900   47.3460 N.3    67  PHE67      -0.1241
    109  CA        57.1550    9.2310   48.0980 C.3    67  PHE67       0.1605
    110  C         58.2470   10.3000   47.9870 C.2    67  PHE67       0.2264
    111  O         58.2820   11.2500   48.7870 O.2    67  PHE67      -0.2867
    112  CB        56.8640    8.9110   49.5760 C.3    67  PHE67       0.0534
    113  CG        55.5180    8.2820   49.8070 C.ar   67  PHE67      -0.0203
    114  CD1       54.3500    8.9440   49.4320 C.ar   67  PHE67      -0.0042
    115  CD2       55.4170    7.0470   50.4550 C.ar   67  PHE67      -0.0042
    116  CE1       53.0850    8.3690   49.6760 C.ar   67  PHE67      -0.0003
    117  CE2       54.1610    6.4690   50.7280 C.ar   67  PHE67      -0.0003
    118  CZ        52.9990    7.1300   50.3330 C.ar   67  PHE67      -0.0000
    119  N         57.1550   13.8680   48.0510 N.3    70  LEU70      -0.1231
    120  CA        56.8200   14.5710   49.3050 C.3    70  LEU70       0.1693
    121  C         57.8780   15.6140   49.6880 C.2    70  LEU70       0.2592
    122  O         57.6340   16.4780   50.5300 O.2    70  LEU70      -0.2718
    123  CB        56.6680   13.5830   50.4690 C.3    70  LEU70       0.0284
    124  CG        55.6000   12.4850   50.4450 C.3    70  LEU70       0.0019
    125  CD1       55.6290   11.7040   51.7610 C.3    70  LEU70       0.0001
    126  CD2       54.2100   13.0490   50.1810 C.3    70  LEU70       0.0001
    127  N         59.0530   15.5090   49.0760 N.am   71  PHE71      -0.1976
    128  CA        60.1870   16.3350   49.3970 C.3    71  PHE71       0.1639
    129  C         60.2360   17.3910   48.2910 C.2    71  PHE71       0.2290
    130  O         60.4080   17.0540   47.1110 O.2    71  PHE71      -0.2864
    131  CB        61.4480   15.4630   49.4260 C.3    71  PHE71       0.0560
    132  CG        61.4350   14.4350   50.5280 C.ar   71  PHE71      -0.0200
    133  CD1       62.0170   14.7230   51.7550 C.ar   71  PHE71      -0.0042
    134  CD2       60.8480   13.1890   50.3390 C.ar   71  PHE71      -0.0042
    135  CE1       62.0140   13.7800   52.7780 C.ar   71  PHE71      -0.0003
    136  CE2       60.8290   12.2470   51.3730 C.ar   71  PHE71      -0.0003
    137  CZ        61.4100   12.5580   52.5890 C.ar   71  PHE71      -0.0000
    138  N         64.7640   17.6390   65.4100 N.3    94  GLY94      -0.1210
    139  CA        65.7010   16.5230   65.4610 C.3    94  GLY94       0.1956
    140  C         66.0150   15.7870   64.1700 C.2    94  GLY94       0.2612
    141  O         66.6450   14.7290   64.1950 O.2    94  GLY94      -0.2717
    142  N         65.5810   16.3130   63.0340 N.am   95  ALA95      -0.1965
    143  CA        66.0020   15.7010   61.7730 C.3    95  ALA95       0.1728
    144  C         67.4290   16.1580   61.5090 C.2    95  ALA95       0.2616
    145  O         67.8840   17.1490   62.0980 O.2    95  ALA95      -0.2715
    146  CB        65.0700   16.0760   60.6500 C.3    95  ALA95       0.0334
    147  N         68.1520   15.4470   60.6480 N.am   96  GLY96      -0.1955
    148  CA        69.5550   15.7650   60.4240 C.3    96  GLY96       0.1869
    149  C         70.0170   15.3250   59.0660 C.2    96  GLY96       0.2309
    150  O         69.3490   15.6070   58.0710 O.2    96  GLY96      -0.2863
    151  N         70.1260   12.5240   57.4970 N.3    98  LEU98      -0.1231
    152  CA        69.2800   11.6460   56.6780 C.3    98  LEU98       0.1693
    153  C         68.2330   12.4300   55.8800 C.2    98  LEU98       0.2591
    154  O         68.0950   12.2390   54.6620 O.2    98  LEU98      -0.2718
    155  CB        68.6300   10.5430   57.5130 C.3    98  LEU98       0.0284
    156  CG        67.6870    9.6200   56.7080 C.3    98  LEU98       0.0019
    157  CD1       68.3490    9.0370   55.4430 C.3    98  LEU98       0.0001
    158  CD2       67.1780    8.5150   57.6110 C.3    98  LEU98       0.0001
    159  N         67.5130   13.3390   56.5610 N.am   99  LEU99      -0.1980
    160  CA        66.5640   14.2050   55.8670 C.3    99  LEU99       0.1596
    161  C         67.2470   14.9400   54.7100 C.2    99  LEU99       0.2287
    162  O         66.7210   14.9650   53.6050 O.2    99  LEU99      -0.2864
    163  CB        65.8440   15.1670   56.8220 C.3    99  LEU99       0.0297
    164  CG        64.9020   16.2070   56.2000 C.3    99  LEU99       0.0022
    165  CD1       63.7530   15.5360   55.4930 C.3    99  LEU99       0.0001
    166  CD2       64.3710   17.1940   57.2540 C.3    99  LEU99       0.0001
    167  N         68.2800    5.0510   57.5400 N.3   180  HIS180     -0.1241
    168  CA        66.9200    5.1370   58.0360 C.3   180  HIS180      0.1621
    169  C         66.6110    4.0600   59.0700 C.2   180  HIS180      0.2264
    170  O         65.9620    4.3490   60.0850 O.2   180  HIS180     -0.2867
    171  CB        65.9410    5.0500   56.8920 C.3   180  HIS180      0.0745
    172  CG        64.5200    5.1650   57.3230 C.ar  180  HIS180      0.0817
    173  ND1       63.7440    4.0590   57.5880 N.ar  180  HIS180     -0.2268
    174  CD2       63.7300    6.2470   57.5330 C.ar  180  HIS180      0.1154
    175  CE1       62.5310    4.4510   57.9400 C.ar  180  HIS180      0.1986
    176  NE2       62.4980    5.7730   57.9200 N.ar  180  HIS180     -0.2212
    177  N         67.9080    5.1150   62.3440 N.3   183  GLU183     -0.1231
    178  CA        67.0010    6.0890   62.9570 C.3   183  GLU183      0.1699
    179  C         65.7340    5.4310   63.4730 C.2   183  GLU183      0.2592
    180  O         65.2350    5.8030   64.5380 O.2   183  GLU183     -0.2718
    181  CB        66.6100    7.2270   61.9950 C.3   183  GLU183      0.0402
    182  CG        67.7840    8.0730   61.4610 C.3   183  GLU183      0.1161
    183  CD        68.4920    8.8660   62.5520 C.2   183  GLU183      0.3649
    184  OE1       67.8100    9.4360   63.4350 O.co2 183  GLU183     -0.2457
    185  OE2       69.7460    8.9100   62.5310 O.co2 183  GLU183     -0.2457
    186  N         65.1940    4.4920   62.7010 N.am  184  LEU184     -0.1980
    187  CA        63.9500    3.8170   63.0750 C.3   184  LEU184      0.1596
    188  C         64.1460    3.0710   64.3870 C.2   184  LEU184      0.2287
    189  O         63.2880    3.1330   65.2770 O.2   184  LEU184     -0.2864
    190  CB        63.4730    2.8470   61.9880 C.3   184  LEU184      0.0297
    191  CG        62.0430    2.2930   62.1050 C.3   184  LEU184      0.0022
    192  CD1       61.6130    1.7390   60.7600 C.3   184  LEU184      0.0001
    193  CD2       61.9530    1.2130   63.1650 C.3   184  LEU184      0.0001
    194  N         64.5180    5.0330   67.8370 N.3   187  PHE187     -0.1241
    195  CA        63.3640    5.8490   68.2310 C.3   187  PHE187      0.1605
    196  C         62.8570    5.5370   69.6480 C.2   187  PHE187      0.2264
    197  O         62.2980    4.4610   69.8850 O.2   187  PHE187     -0.2867
    198  CB        62.2300    5.6870   67.2230 C.3   187  PHE187      0.0534
    199  CG        61.0370    6.5490   67.5040 C.ar  187  PHE187     -0.0203
    200  CD1       59.7870    5.9710   67.7350 C.ar  187  PHE187     -0.0042
    201  CD2       61.1480    7.9340   67.5260 C.ar  187  PHE187     -0.0042
    202  CE1       58.6690    6.7650   67.9840 C.ar  187  PHE187     -0.0003
    203  CE2       60.0300    8.7360   67.7790 C.ar  187  PHE187     -0.0003
    204  CZ        58.7980    8.1520   68.0130 C.ar  187  PHE187     -0.0000
@<TRIPOS>BOND
     1   130   129    2
     2   108   109    1
     3   110   109    1
     4   110   111    2
     5   119   120    1
     6   109   112    1
     7   129   128    1
     8   100   101    1
     9   103   102    2
    10   127   128    1
    11   127   121   am
    12   102   101    1
    13   120   121    1
    14   120   123    1
    15   128   131    1
    16   101   104    1
    17   131   132    1
    18   114   116   ar
    19   114   113   ar
    20   112   113    1
    21   116   118   ar
    22   121   122    2
    23   113   115   ar
    24   126   124    1
    25   118   117   ar
    26   134   132   ar
    27   134   136   ar
    28   124   123    1
    29   124   125    1
    30   107   105    1
    31   115   117   ar
    32   132   133   ar
    33    85    84    2
    34   104   105    1
    35    92    91    2
    36    82    83    1
    37   105   106    1
    38    83    84    1
    39    83    86    1
    40    91    90    1
    41   136   137   ar
    42    84    89   am
    43   133   135   ar
    44    78    77    2
    45    87    86    1
    46    89    90    1
    47    86    88    1
    48    90    93    1
    49   137   135   ar
    50    77    76    1
    51    96    98   ar
    52    96    94   ar
    53    98    99   ar
    54    75    76    1
    55    76    79    1
    56    93    94    1
    57    94    95   ar
    58    99    97   ar
    59   162   161    2
    60    95    97   ar
    61   154   153    2
    62   161   160    1
    63    80    79    1
    64    79    81    1
    65    37    36    1
    66    37    38    1
    67   157   156    1
    68   165   164    1
    69    36    33    1
    70   160   159    1
    71   160   163    1
    72   153   159   am
    73   153   152    1
    74    67    66    2
    75    35    34    2
    76   164   163    1
    77   164   166    1
    78    34    33    1
    79   152   151    1
    80   152   155    1
    81   156   155    1
    82   156   158    1
    83    38    32    1
    84    33    32    1
    85   171   172    1
    86   171   168    1
    87    66    65    1
    88   172   174   ar
    89   172   173   ar
    90   174   176   ar
    91   167   168    1
    92    65    68    1
    93    65    64    1
    94   173   175   ar
    95    32    28   am
    96   176   175   ar
    97   168   169    1
    98   150   149    2
    99    68    69    1
   100    31    30    1
   101    28    29    2
   102    28    27    1
   103    70    69   ar
   104    70    72   ar
   105   149   148    1
   106   169   170    2
   107    69    71   ar
   108    27    30    1
   109    27    26    1
   110    22    21    2
   111    72    74   ar
   112   148   147    1
   113    71    73   ar
   114   147   144   am
   115   146   143    1
   116   192   191    1
   117    21    26   am
   118    21    20    1
   119    61    63   ar
   120    61    59   ar
   121    74    73   ar
   122    63    62   ar
   123   182   181    1
   124   182   183    1
   125   144   143    1
   126   144   145    2
   127    56    55    2
   128   143   142    1
   129   190   191    1
   130   190   187    1
   131   181   178    1
   132   191   193    1
   133    20    23    1
   134    20    19    1
   135    59    58   ar
   136    23    25    1
   137    23    24    1
   138   177   178    1
   139    62    60   ar
   140   185   183   ar
   141   183   184   ar
   142   186   187    1
   143   186   179   am
   144    55    54    1
   145   178   179    1
   146   142   140   am
   147   187   188    1
   148    14    13    2
   149    58    60   ar
   150    58    57    1
   151    19    13   am
   152   179   180    2
   153    17    16    1
   154    54    57    1
   155    54    53    1
   156    13    12    1
   157    50    52   ar
   158    50    48   ar
   159   140   141    2
   160   140   139    1
   161    52    51   ar
   162   188   189    2
   163    16    18    1
   164    16    15    1
   165    48    47   ar
   166    48    46   ar
   167    47    45   ar
   168    12    15    1
   169    12    11    1
   170    51    49   ar
   171   138   139    1
   172    42    41    2
   173    11     3   am
   174    46    49   ar
   175    46    44   ar
   176    45    44   ar
   177    44    43    1
   178    41    40    1
   179     3     4    2
   180     3     2    1
   181     5     6    1
   182     5     2    1
   183   198   199    1
   184   198   195    1
   185   199   201   ar
   186   199   200   ar
   187   201   203   ar
   188    40    43    1
   189    40    39    1
   190   200   202   ar
   191   203   204   ar
   192     8     6   ar
   193     8    10   ar
   194   194   195    1
   195     6     7   ar
   196     2     1    1
   197   202   204   ar
   198   195   196    1
   199    10     9   ar
   200     7     9   ar
   201   196   197    2
