@<TRIPOS>MOLECULE
tmp/3cqwA01.pdb
 143 133 0 0 0
SMALL
GASTEIGER

@<TRIPOS>ATOM
      1  N         11.2510    6.6540   12.6040 N.3    13  LEU13      -0.1231
      2  CA        10.7020    6.8610   13.9530 C.3    13  LEU13       0.1693
      3  C         11.3750    6.0550   15.0720 C.2    13  LEU13       0.2592
      4  O         11.2090    6.3520   16.2410 O.2    13  LEU13      -0.2718
      5  CB         9.2230    6.5110   13.9610 C.3    13  LEU13       0.0284
      6  CG         8.3400    7.3070   12.9970 C.3    13  LEU13       0.0019
      7  CD1        6.9200    6.8000   13.0860 C.3    13  LEU13       0.0001
      8  CD2        8.4150    8.8220   13.2970 C.3    13  LEU13       0.0001
      9  N         12.1080    5.0220   14.7070 N.am   14  GLY14      -0.1957
     10  CA        12.6390    4.0890   15.6730 C.3    14  GLY14       0.1869
     11  C         13.4880    3.0580   14.9810 C.2    14  GLY14       0.2309
     12  O         13.2340    2.6810   13.8380 O.2    14  GLY14      -0.2863
     13  N         11.1660    1.3770   12.4410 N.3    21  VAL21      -0.1245
     14  CA         9.8120    1.8510   12.2030 C.3    21  VAL21       0.1561
     15  C          9.9280    3.1830   11.4850 C.2    21  VAL21       0.2260
     16  O         10.7220    4.0300   11.8830 O.2    21  VAL21      -0.2867
     17  CB         8.9920    1.9930   13.5090 C.3    21  VAL21       0.0252
     18  CG1        7.5410    2.2940   13.1850 C.3    21  VAL21       0.0019
     19  CG2        9.0910    0.7320   14.3550 C.3    21  VAL21       0.0019
     20  N          2.4700    4.0830   10.5150 N.3    34  ALA34      -0.1245
     21  CA         3.8080    3.6540   10.8930 C.3    34  ALA34       0.1562
     22  C          4.0210    2.2430   10.3480 C.2    34  ALA34       0.2260
     23  O          3.1590    1.3650   10.5150 O.2    34  ALA34      -0.2867
     24  CB         3.9890    3.7200   12.4120 C.3    34  ALA34       0.0290
     25  N          6.5840   -0.8820   10.7100 N.3    36  LYS36      -0.1245
     26  CA         7.6940   -1.6350   11.3290 C.3    36  LYS36       0.1561
     27  C          8.2240   -2.6240   10.2770 C.2    36  LYS36       0.2260
     28  O          7.4750   -3.4430    9.7900 O.2    36  LYS36      -0.2867
     29  CB         7.2110   -2.4190   12.5820 C.3    36  LYS36       0.0271
     30  CG         8.3090   -3.3260   13.2530 C.3    36  LYS36       0.0035
     31  CD         7.8730   -3.9940   14.5710 C.3    36  LYS36       0.0206
     32  CE         7.5320   -3.0070   15.6830 C.3    36  LYS36       0.1093
     33  NZ         7.4650   -3.6480   17.0750 N.3    36  LYS36      -0.1314
     34  N          3.3910  -11.1950   17.8340 N.3    55  GLU55      -0.1245
     35  CA         3.0030   -9.8190   17.5990 C.3    55  GLU55       0.1567
     36  C          2.0110   -9.7360   16.4080 C.2    55  GLU55       0.2260
     37  O          1.0190   -9.0200   16.4760 O.2    55  GLU55      -0.2867
     38  CB         4.2190   -8.9590   17.3130 C.3    55  GLU55       0.0388
     39  CG         3.8270   -7.5190   17.0940 C.3    55  GLU55       0.1160
     40  CD         4.9510   -6.5190   17.2340 C.2    55  GLU55       0.3649
     41  OE1        6.0460   -6.7550   16.6700 O.co2  55  GLU55      -0.2457
     42  OE2        4.6690   -5.4770   17.8810 O.co2  55  GLU55      -0.2457
     43  N         -2.8060   -0.0600   19.1810 N.3    68  THR68      -0.1218
     44  CA        -2.3520    0.1560   17.8230 C.3    68  THR68       0.1862
     45  C         -3.0730   -0.8160   16.9180 C.2    68  THR68       0.2287
     46  O         -2.9280   -2.0280   17.0790 O.2    68  THR68      -0.2866
     47  CB        -0.8380   -0.1680   17.8150 C.3    68  THR68       0.1770
     48  OG1       -0.1420    0.8060   18.6020 O.3    68  THR68      -0.2211
     49  CG2       -0.2570    0.0410   16.4520 C.3    68  THR68       0.0375
     50  N          0.6900    0.0060   10.5890 N.3    84  MET84      -0.1230
     51  CA        -0.1790    0.1880   11.7520 C.3    84  MET84       0.1702
     52  C         -0.5050    1.6380   11.8360 C.2    84  MET84       0.2592
     53  O          0.2150    2.4020   11.2220 O.2    84  MET84      -0.2718
     54  CB         0.5950   -0.1870   13.0120 C.3    84  MET84       0.0401
     55  CG         1.1540   -1.5700   12.9190 C.3    84  MET84       0.0596
     56  SD         2.2500   -1.9950   14.2710 S.3    84  MET84      -0.1393
     57  CE         3.7600   -1.3820   13.6070 C.3    84  MET84       0.0692
     58  N         -1.5240    2.0180   12.6230 N.am   85  GLU85      -0.1966
     59  CA        -1.8200    3.4300   12.8730 C.3    85  GLU85       0.1733
     60  C         -0.5800    4.0980   13.4040 C.2    85  GLU85       0.2616
     61  O          0.0930    3.5480   14.2690 O.2    85  GLU85      -0.2715
     62  CB        -2.9090    3.6390   13.9580 C.3    85  GLU85       0.0429
     63  CG        -4.3750    3.3740   13.6140 C.3    85  GLU85       0.1163
     64  CD        -5.2530    3.2360   14.8850 C.2    85  GLU85       0.3649
     65  OE1       -4.7210    2.7270   15.9540 O.co2  85  GLU85      -0.2457
     66  OE2       -6.4550    3.6480   14.8230 O.co2  85  GLU85      -0.2457
     67  N         -0.2920    5.2790   12.8830 N.am   86  TYR86      -0.1960
     68  CA         0.7570    6.1690   13.3740 C.3    86  TYR86       0.1771
     69  C          0.3210    6.8820   14.6700 C.2    86  TYR86       0.2619
     70  O         -0.7000    7.5530   14.7070 O.2    86  TYR86      -0.2715
     71  CB         1.0390    7.2250   12.3110 C.3    86  TYR86       0.0574
     72  CG         2.0210    8.3310   12.6760 C.ar   86  TYR86      -0.0198
     73  CD1        3.2310    8.0420   13.2990 C.ar   86  TYR86      -0.0009
     74  CD2        1.7490    9.6530   12.3590 C.ar   86  TYR86      -0.0009
     75  CE1        4.1160    9.0140   13.6300 C.ar   86  TYR86       0.0417
     76  CE2        2.6660   10.6770   12.6890 C.ar   86  TYR86       0.0417
     77  CZ         3.8550   10.3290   13.3200 C.ar   86  TYR86       0.1957
     78  OH         4.7540   11.2770   13.6860 O.3    86  TYR86      -0.2866
     79  N          1.1300    6.7660   15.7110 N.am   87  ALA87      -0.1977
     80  CA         0.8890    7.5110   16.9370 C.3    87  ALA87       0.1597
     81  C          1.7820    8.7510   16.9330 C.2    87  ALA87       0.2287
     82  O          2.9580    8.6870   17.2780 O.2    87  ALA87      -0.2864
     83  CB         1.1600    6.6130   18.1930 C.3    87  ALA87       0.0319
     84  N          6.2780    8.7090   22.5200 N.3    91  GLU91      -0.1245
     85  CA         6.2820    7.8590   23.7050 C.3    91  GLU91       0.1567
     86  C          6.0330    8.6360   24.9730 C.2    91  GLU91       0.2260
     87  O          6.5840    9.6920   25.1590 O.2    91  GLU91      -0.2867
     88  CB         7.6640    7.1930   23.8670 C.3    91  GLU91       0.0388
     89  CG         8.0610    6.2800   22.7450 C.3    91  GLU91       0.1160
     90  CD         9.4940    5.8560   22.8280 C.2    91  GLU91       0.3649
     91  OE1        9.8900    5.1030   21.9300 O.co2  91  GLU91      -0.2457
     92  OE2       10.1950    6.2400   23.8010 O.co2  91  GLU91      -0.2457
     93  N          8.4520    3.5440   27.5630 N.3   135  GLU135     -0.1231
     94  CA         8.8830    3.5160   26.1900 C.3   135  GLU135      0.1699
     95  C          7.8570    2.9670   25.2130 C.2   135  GLU135      0.2592
     96  O          7.8720    3.3760   24.0570 O.2   135  GLU135     -0.2718
     97  CB        10.1820    2.7190   26.0400 C.3   135  GLU135      0.0402
     98  CG        11.4050    3.3430   26.7420 C.3   135  GLU135      0.1161
     99  CD        11.6100    2.8550   28.1630 C.2   135  GLU135      0.3649
    100  OE1       10.6140    2.5930   28.8500 O.co2 135  GLU135     -0.2457
    101  OE2       12.7800    2.8200   28.6670 O.co2 135  GLU135     -0.2457
    102  N          6.9690    2.0640   25.6430 N.am  136  ASN136     -0.1974
    103  CA         6.0670    1.3610   24.6860 C.3   136  ASN136      0.1688
    104  C          4.6120    1.7750   24.9110 C.2   136  ASN136      0.2292
    105  O          3.6740    1.0110   24.6150 O.2   136  ASN136     -0.2864
    106  CB         6.1910   -0.1770   24.8300 C.3   136  ASN136      0.1181
    107  CG         7.5500   -0.7060   24.4060 C.2   136  ASN136      0.2629
    108  OD1        8.3710   -0.0170   23.7640 O.2   136  ASN136     -0.2716
    109  ND2        7.8170   -1.9210   24.7870 N.am  136  ASN136     -0.0877
    110  N          2.5480    4.9190   23.7450 N.3   138  MET138     -0.1245
    111  CA         2.5390    6.0640   22.8350 C.3   138  MET138      0.1570
    112  C          1.2350    6.8520   22.9510 C.2   138  MET138      0.2261
    113  O          0.2620    6.3730   23.5230 O.2   138  MET138     -0.2867
    114  CB         2.7910    5.5590   21.4170 C.3   138  MET138      0.0387
    115  CG         4.2690    4.9910   21.3410 C.3   138  MET138      0.0595
    116  SD         4.7610    4.6560   19.7380 S.3   138  MET138     -0.1393
    117  CE         5.4060    6.3800   19.2960 C.3   138  MET138      0.0692
    118  N          1.8830   -0.2600   21.8340 N.3   148  THR148     -0.1203
    119  CA         2.6670   -0.8690   20.7530 C.3   148  THR148      0.1994
    120  C          3.5440   -1.9970   21.3520 C.2   148  THR148      0.2617
    121  O          3.7400   -2.0870   22.5950 O.2   148  THR148     -0.2717
    122  CB         3.6570    0.2140   20.1350 C.3   148  THR148      0.1784
    123  OG1        4.4530    0.7570   21.2030 O.3   148  THR148     -0.2211
    124  CG2        2.9440    1.4020   19.6410 C.3   148  THR148      0.0376
    125  N          4.1060   -2.8130   20.4720 N.am  149  ASP149     -0.1973
    126  CA         5.1540   -3.7500   20.7820 C.3   149  ASP149      0.1709
    127  C          4.5780   -4.9290   21.5530 C.2   149  ASP149      0.2293
    128  O          4.6820   -4.9800   22.7810 O.2   149  ASP149     -0.2864
    129  CB         6.3080   -3.1070   21.5860 C.3   149  ASP149      0.1436
    130  CG         7.1580   -2.1650   20.7440 C.2   149  ASP149      0.3671
    131  OD1        6.7250   -0.9840   20.5350 O.co2 149  ASP149     -0.2456
    132  OD2        8.2560   -2.5610   20.2560 O.co2 149  ASP149     -0.2456
    133  N          9.3520   12.7550   18.6670 N.3   294  PHE294     -0.1241
    134  CA        10.1600   11.5570   18.5130 C.3   294  PHE294      0.1605
    135  C         11.6000   11.9540   18.7090 C.2   294  PHE294      0.2264
    136  O         11.9460   13.1370   18.6490 O.2   294  PHE294     -0.2867
    137  CB         9.9570   10.8990   17.1490 C.3   294  PHE294      0.0534
    138  CG         8.6030   10.2450   16.9980 C.ar  294  PHE294     -0.0203
    139  CD1        8.4490    8.8990   17.2070 C.ar  294  PHE294     -0.0042
    140  CD2        7.4920   10.9950   16.6900 C.ar  294  PHE294     -0.0042
    141  CE1        7.2160    8.3160   17.1100 C.ar  294  PHE294     -0.0003
    142  CE2        6.2280   10.4050   16.5840 C.ar  294  PHE294     -0.0003
    143  CZ         6.0930    9.0850   16.7850 C.ar  294  PHE294     -0.0000
@<TRIPOS>BOND
     1    28    27    2
     2    27    26    1
     3    22    23    2
     4    22    21    1
     5    20    21    1
     6    50    51    1
     7    25    26    1
     8    21    24    1
     9    53    52    2
    10    26    29    1
    11    15    16    2
    12    15    14    1
    13    51    52    1
    14    51    54    1
    15    52    58   am
    16    14    13    1
    17    14    17    1
    18    71    72    1
    19    71    68    1
    20    74    72   ar
    21    74    76   ar
    22    29    30    1
    23     1     2    1
    24    58    59    1
    25    72    73   ar
    26    76    77   ar
    27    59    60    1
    28    59    62    1
    29    67    68    1
    30    67    60   am
    31    55    54    1
    32    55    56    1
    33     6     7    1
    34     6     8    1
    35     6     5    1
    36    18    17    1
    37    30    31    1
    38    73    75   ar
    39    77    75   ar
    40    77    78    1
    41    68    69    1
    42    60    61    2
    43    17    19    1
    44    57    56    1
    45    63    62    1
    46    63    64    1
    47    12    11    2
    48     2     5    1
    49     2     3    1
    50    31    32    1
    51    69    70    2
    52    69    79   am
    53     9     3   am
    54     9    10    1
    55    66    64   ar
    56    64    65   ar
    57    11    10    1
    58     3     4    2
    59    32    33    1
    60    79    80    1
    61    36    37    2
    62    36    35    1
    63    49    47    1
    64   142   140   ar
    65   142   143   ar
    66    41    40   ar
    67   140   138   ar
    68   143   141   ar
    69    45    46    2
    70    45    44    1
    71    81    80    1
    72    81    82    2
    73    80    83    1
    74   138   137    1
    75   138   139   ar
    76    39    40    1
    77    39    38    1
    78   141   139   ar
    79   137   134    1
    80    40    42   ar
    81    38    35    1
    82    35    34    1
    83    47    44    1
    84    47    48    1
    85    44    43    1
    86   134   133    1
    87   134   135    1
    88   136   135    2
    89   117   116    1
    90   124   122    1
    91   116   115    1
    92   122   119    1
    93   122   123    1
    94   132   130   ar
    95   125   126    1
    96   125   120   am
    97   131   130   ar
    98   130   129    1
    99   119   120    1
   100   119   118    1
   101   126   127    1
   102   126   129    1
   103   115   114    1
   104   120   121    2
   105   114   111    1
   106   127   128    2
   107    91    90   ar
   108    84    85    1
   109    89    90    1
   110    89    88    1
   111    90    92   ar
   112   111   112    1
   113   111   110    1
   114   112   113    2
   115    85    88    1
   116    85    86    1
   117   108   107    2
   118    96    95    2
   119   107   109   am
   120   107   106    1
   121   105   104    2
   122   103   106    1
   123   103   104    1
   124   103   102    1
   125    86    87    2
   126    95   102   am
   127    95    94    1
   128    97    94    1
   129    97    98    1
   130    94    93    1
   131    98    99    1
   132    99   101   ar
   133    99   100   ar
