@<TRIPOS>MOLECULE
tmp/3cqyB00.pdb
 85 77 0 0 0
SMALL
GASTEIGER

@<TRIPOS>ATOM
      1  N         29.9220   77.8180   10.4880 N.3    11  THR11      -0.1218
      2  CA        28.4870   77.6480   10.7640 C.3    11  THR11       0.1862
      3  C         27.6930   76.9990    9.6180 C.2    11  THR11       0.2287
      4  O         26.5280   76.6190    9.7980 O.2    11  THR11      -0.2866
      5  CB        27.8210   78.9870   11.1560 C.3    11  THR11       0.1770
      6  OG1       28.1880   79.9990   10.2070 O.3    11  THR11      -0.2211
      7  CG2       28.2710   79.4150   12.5470 C.3    11  THR11       0.0375
      8  N         39.9070   77.3120   16.0520 N.3    94  HIS94      -0.1241
      9  CA        38.7460   78.2020   16.2620 C.3    94  HIS94       0.1621
     10  C         37.6950   77.5170   17.1660 C.2    94  HIS94       0.2264
     11  O         37.1040   78.1500   18.0340 O.2    94  HIS94      -0.2867
     12  CB        38.0820   78.6570   14.9380 C.3    94  HIS94       0.0745
     13  CG        36.8410   79.4870   15.1470 C.ar   94  HIS94       0.0817
     14  ND1       35.5700   78.9620   15.0590 N.ar   94  HIS94      -0.2268
     15  CD2       36.6820   80.7900   15.4940 C.ar   94  HIS94       0.1154
     16  CE1       34.6830   79.9040   15.3320 C.ar   94  HIS94       0.1986
     17  NE2       35.3310   81.0250   15.5950 N.ar   94  HIS94      -0.2212
     18  N         31.5180   77.7780   16.4790 N.3    97  THR97      -0.1218
     19  CA        30.6480   78.7970   17.1130 C.3    97  THR97       0.1862
     20  C         29.2410   78.2590   17.3700 C.2    97  THR97       0.2287
     21  O         28.6080   77.6970   16.4670 O.2    97  THR97      -0.2866
     22  CB        30.5790   80.1120   16.3160 C.3    97  THR97       0.1770
     23  OG1       31.8560   80.7490   16.3700 O.3    97  THR97      -0.2211
     24  CG2       29.5630   81.0800   16.9140 C.3    97  THR97       0.0375
     25  N         27.2320   83.8400   19.0150 N.3   100  HIS100     -0.1241
     26  CA        28.0920   85.0210   18.9020 C.3   100  HIS100      0.1621
     27  C         27.2560   86.2780   19.1830 C.2   100  HIS100      0.2264
     28  O         26.4720   86.6970   18.3290 O.2   100  HIS100     -0.2867
     29  CB        28.7300   85.0840   17.5180 C.3   100  HIS100      0.0745
     30  CG        29.6620   86.2410   17.3360 C.ar  100  HIS100      0.0817
     31  ND1       30.8550   86.3510   18.0220 N.ar  100  HIS100     -0.2268
     32  CD2       29.5790   87.3370   16.5410 C.ar  100  HIS100      0.1154
     33  CE1       31.4570   87.4720   17.6720 C.ar  100  HIS100      0.1986
     34  NE2       30.7030   88.0910   16.7770 N.ar  100  HIS100     -0.2212
     35  N         38.5460   84.5330   20.3730 N.3   130  ARG130     -0.1245
     36  CA        37.6480   85.6780   20.2920 C.3   130  ARG130      0.1563
     37  C         37.3400   86.3310   21.6320 C.2   130  ARG130      0.2260
     38  O         37.0680   87.5480   21.6830 O.2   130  ARG130     -0.2867
     39  CB        36.3360   85.2830   19.6130 C.3   130  ARG130      0.0307
     40  CG        36.5070   84.6650   18.2350 C.3   130  ARG130      0.0489
     41  CD        35.1500   84.5050   17.5510 C.3   130  ARG130      0.2205
     42  NE        35.2650   83.8120   16.2780 N.pl3 130  ARG130     -0.0865
     43  CZ        35.7320   84.3640   15.1630 C.cat 130  ARG130      0.5346
     44  NH1       36.1480   85.6220   15.1720 N.pl3 130  ARG130      0.1354
     45  NH2       35.7960   83.6610   14.0420 N.pl3 130  ARG130      0.1354
     46  N         35.4050   89.8350   16.4150 N.3   141  ALA141     -0.1245
     47  CA        35.4880   89.5020   15.0110 C.3   141  ALA141      0.1562
     48  C         35.4560   90.7840   14.1920 C.2   141  ALA141      0.2260
     49  O         34.9380   91.8120   14.6680 O.2   141  ALA141     -0.2867
     50  CB        34.3460   88.5830   14.6120 C.3   141  ALA141      0.0290
     51  N         28.2930   84.3200    6.8970 N.3   167  ILE167     -0.1245
     52  CA        28.3200   85.7780    7.0160 C.3   167  ILE167      0.1561
     53  C         29.5290   86.2940    6.2230 C.2   167  ILE167      0.2260
     54  O         30.5610   85.6240    6.1630 O.2   167  ILE167     -0.2867
     55  CB        28.4080   86.1850    8.5210 C.3   167  ILE167      0.0252
     56  CG1       27.1160   85.7700    9.2640 C.3   167  ILE167      0.0019
     57  CG2       28.6820   87.6860    8.6880 C.3   167  ILE167      0.0019
     58  CD1       25.7960   86.4940    8.7600 C.3   167  ILE167      0.0001
     59  N         32.5980   89.0170    5.4380 N.3   169  ASN169     -0.1240
     60  CA        33.4350   90.0030    6.1150 C.3   169  ASN169      0.1653
     61  C         34.5050   90.5830    5.1800 C.2   169  ASN169      0.2266
     62  O         35.0900   89.8700    4.3400 O.2   169  ASN169     -0.2867
     63  CB        34.0160   89.4730    7.4520 C.3   169  ASN169      0.1155
     64  CG        34.8880   88.2100    7.2920 C.2   169  ASN169      0.2627
     65  OD1       34.3740   87.0980    7.1620 O.2   169  ASN169     -0.2716
     66  ND2       36.2080   88.3830    7.3500 N.am  169  ASN169     -0.0877
     67  N         31.9070   92.5790    9.5710 N.3   184  ASP184     -0.1239
     68  CA        30.8910   91.8240    8.8540 C.3   184  ASP184      0.1674
     69  C         29.9570   92.7640    8.0970 C.2   184  ASP184      0.2266
     70  O         29.3890   93.6890    8.6900 O.2   184  ASP184     -0.2867
     71  CB        30.0960   90.9610    9.8200 C.3   184  ASP184      0.1410
     72  CG        30.9390   89.8780   10.4590 C.2   184  ASP184      0.3668
     73  OD1       32.0170   89.4720    9.9390 O.co2 184  ASP184     -0.2456
     74  OD2       30.5140   89.4180   11.5100 O.co2 184  ASP184     -0.2456
     75  N         28.2280   89.9750   13.2680 N.3   238  THR238     -0.1203
     76  CA        26.9940   89.2770   13.5230 C.3   238  THR238      0.1994
     77  C         27.2150   87.7780   13.3110 C.2   238  THR238      0.2618
     78  O         28.0890   87.3610   12.5590 O.2   238  THR238     -0.2717
     79  CB        25.8340   89.8470   12.6310 C.3   238  THR238      0.1784
     80  OG1       24.5770   89.2920   13.0410 O.3   238  THR238     -0.2211
     81  CG2       26.0720   89.5700   11.1340 C.3   238  THR238      0.0376
     82  N         26.4170   86.9700   13.9860 N.am  239  GLY239     -0.1956
     83  CA        26.4400   85.5330   13.7770 C.3   239  GLY239      0.1869
     84  C         25.1870   85.0790   13.0560 C.2   239  GLY239      0.2309
     85  O         24.9950   85.3810   11.8680 O.2   239  GLY239     -0.2863
@<TRIPOS>BOND
     1    62    61    2
     2    61    60    1
     3    59    60    1
     4    60    63    1
     5    54    53    2
     6    53    52    1
     7    51    52    1
     8    52    55    1
     9    65    64    2
    10    64    66   am
    11    64    63    1
    12    69    70    2
    13    69    68    1
    14    55    57    1
    15    55    56    1
    16    58    56    1
    17    68    67    1
    18    68    71    1
    19     3     4    2
    20     3     2    1
    21    71    72    1
    22    73    72   ar
    23     6     5    1
    24    72    74   ar
    25     1     2    1
    26     2     5    1
    27    81    79    1
    28     5     7    1
    29    85    84    2
    30    78    77    2
    31    79    80    1
    32    79    76    1
    33    84    83    1
    34    75    76    1
    35    77    76    1
    36    77    82   am
    37    83    82    1
    38    45    43    1
    39    48    49    2
    40    48    47    1
    41    50    47    1
    42    12    13    1
    43    12     9    1
    44    47    46    1
    45    14    13   ar
    46    14    16   ar
    47    13    15   ar
    48    43    44    1
    49    43    42    2
    50    16    17   ar
    51    15    17   ar
    52     8     9    1
    53     9    10    1
    54    42    41    1
    55    22    23    1
    56    22    24    1
    57    22    19    1
    58    21    20    2
    59    18    19    1
    60    32    34   ar
    61    32    30   ar
    62    34    33   ar
    63    19    20    1
    64    10    11    2
    65    30    29    1
    66    30    31   ar
    67    29    26    1
    68    41    40    1
    69    33    31   ar
    70    40    39    1
    71    28    27    2
    72    26    25    1
    73    26    27    1
    74    39    36    1
    75    36    35    1
    76    36    37    1
    77    37    38    2
