@<TRIPOS>MOLECULE
tmp/3cr0A00.pdb
 143 134 0 0 0
SMALL
GASTEIGER

@<TRIPOS>ATOM
      1  N          0.9790   59.1090   20.7620 N.3    13  ILE13      -0.1231
      2  CA         1.7000   57.8450   20.6080 C.3    13  ILE13       0.1692
      3  C          0.8860   56.5680   20.9270 C.2    13  ILE13       0.2592
      4  O          1.3860   55.4460   20.7970 O.2    13  ILE13      -0.2718
      5  CB         3.0090   57.8320   21.4530 C.3    13  ILE13       0.0266
      6  CG1        2.6870   58.0270   22.9500 C.3    13  ILE13       0.0019
      7  CG2        4.0230   58.8540   20.8560 C.3    13  ILE13       0.0020
      8  CD1        3.9250   58.0840   23.8680 C.3    13  ILE13       0.0001
      9  N         -0.3640   56.7620   21.3370 N.am   14  GLY14      -0.1957
     10  CA        -1.2260   55.6580   21.7340 C.3    14  GLY14       0.1869
     11  C         -2.6740   56.0910   21.7740 C.2    14  GLY14       0.2309
     12  O         -2.9570   57.1960   22.1960 O.2    14  GLY14      -0.2863
     13  N         -2.3080   58.4350   24.8230 N.3    19  VAL19      -0.1245
     14  CA        -0.9820   58.6180   25.4180 C.3    19  VAL19       0.1561
     15  C         -0.3590   59.6370   24.4560 C.2    19  VAL19       0.2260
     16  O         -0.4560   59.5130   23.2190 O.2    19  VAL19      -0.2867
     17  CB        -0.2190   57.2500   25.5280 C.3    19  VAL19       0.0252
     18  CG1        1.0530   57.2860   26.4310 C.3    19  VAL19       0.0019
     19  CG2       -1.1190   56.2530   26.0760 C.3    19  VAL19       0.0019
     20  N          5.8960   60.3010   28.9260 N.3    32  ALA32      -0.1245
     21  CA         4.7400   59.7340   28.1970 C.3    32  ALA32       0.1562
     22  C          3.5480   59.9680   29.1680 C.2    32  ALA32       0.2260
     23  O          3.6640   59.7090   30.3710 O.2    32  ALA32      -0.2867
     24  CB         4.9600   58.3010   27.8930 C.3    32  ALA32       0.0290
     25  N         -0.5740   59.4940   29.8700 N.3    34  LYS34      -0.1245
     26  CA        -1.7560   58.7630   29.4600 C.3    34  LYS34       0.1561
     27  C         -3.0380   59.3370   30.0790 C.2    34  LYS34       0.2260
     28  O         -3.1500   59.4090   31.2690 O.2    34  LYS34      -0.2867
     29  CB        -1.6190   57.2780   29.7580 C.3    34  LYS34       0.0271
     30  CG        -2.8180   56.5010   29.3870 C.3    34  LYS34       0.0035
     31  CD        -2.4880   55.0410   29.3140 C.3    34  LYS34       0.0206
     32  CE        -3.7280   54.1680   29.0720 C.3    34  LYS34       0.1093
     33  NZ        -3.3250   52.7000   28.9110 N.3    34  LYS34      -0.1314
     34  N         -3.4480   50.6810   39.2980 N.3    52  GLU52      -0.1245
     35  CA        -2.3560   50.8960   38.3430 C.3    52  GLU52       0.1567
     36  C         -1.4010   51.9920   38.9180 C.2    52  GLU52       0.2260
     37  O         -0.2020   51.8960   38.8050 O.2    52  GLU52      -0.2867
     38  CB        -2.8890   51.2680   36.9030 C.3    52  GLU52       0.0388
     39  CG        -1.8490   51.8880   35.9630 C.3    52  GLU52       0.1160
     40  CD        -2.3760   52.1370   34.5140 C.2    52  GLU52       0.3649
     41  OE1       -3.5760   52.3450   34.3190 O.co2  52  GLU52      -0.2457
     42  OE2       -1.5910   52.1310   33.5510 O.co2  52  GLU52      -0.2457
     43  N          2.3410   51.5740   40.1110 N.3    56  HIS56      -0.1241
     44  CA         3.3670   52.5020   39.6340 C.3    56  HIS56       0.1621
     45  C          4.1760   53.1310   40.6970 C.2    56  HIS56       0.2264
     46  O          5.3440   53.3020   40.5050 O.2    56  HIS56      -0.2867
     47  CB         2.8190   53.6110   38.7000 C.3    56  HIS56       0.0745
     48  CG         3.0260   53.3030   37.2600 C.ar   56  HIS56       0.0817
     49  ND1        4.2880   53.0800   36.7370 N.ar   56  HIS56      -0.2268
     50  CD2        2.1510   53.1000   36.2490 C.ar   56  HIS56       0.1154
     51  CE1        4.1780   52.7520   35.4580 C.ar   56  HIS56       0.1986
     52  NE2        2.8910   52.7400   35.1380 N.ar   56  HIS56      -0.2212
     53  N          9.2700   50.7480   33.6620 N.3    66  VAL66      -0.1245
     54  CA         8.9920   52.1600   33.3550 C.3    66  VAL66       0.1561
     55  C          8.7190   53.0080   34.6530 C.2    66  VAL66       0.2260
     56  O          7.7790   52.7310   35.3710 O.2    66  VAL66      -0.2867
     57  CB         7.7520   52.2820   32.3760 C.3    66  VAL66       0.0252
     58  CG1        7.2570   53.6910   32.3530 C.3    66  VAL66       0.0019
     59  CG2        8.1180   51.8090   30.9960 C.3    66  VAL66       0.0019
     60  N         -1.8680   59.8070   33.9410 N.3    78  ILE78      -0.1245
     61  CA        -0.5730   59.3410   34.4340 C.3    78  ILE78       0.1561
     62  C          0.6650   59.7010   33.5360 C.2    78  ILE78       0.2260
     63  O          0.7130   59.5510   32.2670 O.2    78  ILE78      -0.2867
     64  CB        -0.6420   57.8960   34.9860 C.3    78  ILE78       0.0252
     65  CG1        0.7510   57.2800   35.1320 C.3    78  ILE78       0.0019
     66  CG2       -1.4470   56.9950   34.1180 C.3    78  ILE78       0.0019
     67  CD1        0.6730   56.1070   36.0610 C.3    78  ILE78       0.0001
     68  N          4.4350   59.1790   32.9490 N.3    80  ASN80      -0.1225
     69  CA         5.5050   58.2310   33.0700 C.3    80  ASN80       0.1785
     70  C          6.7400   58.6070   32.2740 C.2    80  ASN80       0.2597
     71  O          6.7690   59.5370   31.4670 O.2    80  ASN80      -0.2718
     72  CB         5.0380   56.8200   32.6440 C.3    80  ASN80       0.1169
     73  CG         4.0650   56.1640   33.6540 C.2    80  ASN80       0.2627
     74  OD1        3.9490   56.5850   34.8430 O.2    80  ASN80      -0.2716
     75  ND2        3.3230   55.1240   33.1560 N.am   80  ASN80      -0.0877
     76  N          7.7880   57.8630   32.5360 N.am   81  GLU81      -0.1965
     77  CA         9.0140   57.9210   31.7390 C.3    81  GLU81       0.1733
     78  C          8.7370   57.6560   30.2480 C.2    81  GLU81       0.2616
     79  O          8.0380   56.7000   29.8970 O.2    81  GLU81      -0.2715
     80  CB        10.0060   56.8530   32.3040 C.3    81  GLU81       0.0429
     81  CG        11.0170   56.3500   31.3420 C.3    81  GLU81       0.1163
     82  CD        11.9520   55.3690   31.9400 C.2    81  GLU81       0.3649
     83  OE1       11.5250   54.6760   32.9080 O.co2  81  GLU81      -0.2457
     84  OE2       13.0960   55.2430   31.3900 O.co2  81  GLU81      -0.2457
     85  N          9.2680   58.5310   29.3840 N.am   82  TYR82      -0.1960
     86  CA         9.1590   58.3650   27.9430 C.3    82  TYR82       0.1771
     87  C         10.3160   57.4610   27.4550 C.2    82  TYR82       0.2620
     88  O         11.4890   57.7250   27.7330 O.2    82  TYR82      -0.2715
     89  CB         9.1040   59.7070   27.2260 C.3    82  TYR82       0.0574
     90  CG         9.1500   59.5740   25.6990 C.ar   82  TYR82      -0.0198
     91  CD1        8.0680   59.1160   25.0120 C.ar   82  TYR82      -0.0009
     92  CD2       10.3310   59.8530   24.9740 C.ar   82  TYR82      -0.0009
     93  CE1        8.1080   58.9540   23.6400 C.ar   82  TYR82       0.0417
     94  CE2       10.4010   59.7030   23.5580 C.ar   82  TYR82       0.0417
     95  CZ         9.2880   59.2080   22.9270 C.ar   82  TYR82       0.1957
     96  OH         9.2850   59.0490   21.5660 O.3    82  TYR82      -0.2866
     97  N          9.9730   56.3640   26.7750 N.am   83  CYS83      -0.1954
     98  CA        10.9760   55.4420   26.2540 C.3    83  CYS83       0.1843
     99  C         11.0720   55.7270   24.7750 C.2    83  CYS83       0.2625
    100  O         10.1220   55.5410   24.0520 O.2    83  CYS83      -0.2714
    101  CB        10.6140   53.9610   26.4880 C.3    83  CYS83       0.0997
    102  SG        10.5030   53.5880   28.3100 S.3    83  CYS83      -0.0797
    103  N         12.2490   56.1690   24.3800 N.am   84  ASN84      -0.1972
    104  CA        12.6420   56.6820   23.0500 C.3    84  ASN84       0.1688
    105  C         12.6420   55.5950   21.9980 C.2    84  ASN84       0.2292
    106  O         12.5600   55.8750   20.8080 O.2    84  ASN84      -0.2864
    107  CB        14.1140   57.1580   23.1660 C.3    84  ASN84       0.1181
    108  CG        14.5160   58.2430   22.1120 C.2    84  ASN84       0.2629
    109  OD1       13.7020   59.0540   21.6090 O.2    84  ASN84      -0.2716
    110  ND2       15.8040   58.2700   21.8060 N.am   84  ASN84      -0.0877
    111  N         10.5040   53.0920   21.4040 N.3    86  GLY86      -0.1210
    112  CA         9.2240   52.4360   20.9020 C.3    86  GLY86       0.1956
    113  C          8.8540   51.1700   21.7200 C.2    86  GLY86       0.2612
    114  O          9.4390   50.8810   22.7260 O.2    86  GLY86      -0.2717
    115  N          7.8460   50.4110   21.2930 N.am   87  SER87      -0.1952
    116  CA         7.5360   49.1530   21.9650 C.3    87  SER87       0.1924
    117  C          8.2560   47.9470   21.3090 C.2    87  SER87       0.2314
    118  O          8.8160   48.0370   20.2080 O.2    87  SER87      -0.2863
    119  CB         6.0420   48.9550   22.0660 C.3    87  SER87       0.2116
    120  OG         5.5330   48.8600   20.7890 O.3    87  SER87      -0.2180
    121  N          8.7400   48.2590   26.6840 N.3   137  PHE137     -0.1241
    122  CA         9.2080   49.4560   25.9870 C.3   137  PHE137      0.1605
    123  C         10.7320   49.4780   25.9040 C.2   137  PHE137      0.2264
    124  O         11.4110   48.9120   26.7610 O.2   137  PHE137     -0.2867
    125  CB         8.6280   50.7400   26.6850 C.3   137  PHE137      0.0534
    126  CG         7.1370   50.7680   26.6910 C.ar  137  PHE137     -0.0203
    127  CD1        6.4110   50.9220   25.4960 C.ar  137  PHE137     -0.0042
    128  CD2        6.4420   50.5740   27.8520 C.ar  137  PHE137     -0.0042
    129  CE1        4.9540   50.8570   25.5010 C.ar  137  PHE137     -0.0003
    130  CE2        5.0320   50.4960   27.8440 C.ar  137  PHE137     -0.0003
    131  CZ         4.2980   50.6850   26.6870 C.ar  137  PHE137     -0.0000
    132  N          6.0750   48.0770   31.1020 N.3   146  GLY146     -0.1210
    133  CA         5.1620   49.1660   31.3340 C.3   146  GLY146      0.1956
    134  C          3.7640   48.6340   31.3630 C.2   146  GLY146      0.2611
    135  O          3.5360   47.4070   31.3380 O.2   146  GLY146     -0.2717
    136  N          2.8080   49.5610   31.3480 N.am  147  ASP147     -0.1973
    137  CA         1.3500   49.2110   31.3990 C.3   147  ASP147      0.1709
    138  C          0.9940   48.3180   32.5720 C.2   147  ASP147      0.2293
    139  O          0.8600   47.0820   32.4610 O.2   147  ASP147     -0.2864
    140  CB         0.7580   48.6450   30.0930 C.3   147  ASP147      0.1436
    141  CG        -0.7670   48.7510   30.0840 C.2   147  ASP147      0.3671
    142  OD1       -1.4100   48.8080   31.1790 O.co2 147  ASP147     -0.2456
    143  OD2       -1.3360   48.8750   29.0030 O.co2 147  ASP147     -0.2456
@<TRIPOS>BOND
     1   118   117    2
     2     2     1    1
     3     2     3    1
     4     2     5    1
     5   120   119    1
     6     4     3    2
     7   106   105    2
     8     7     5    1
     9   112   111    1
    10   112   113    1
    11     3     9   am
    12   115   113   am
    13   115   116    1
    14   117   116    1
    15     9    10    1
    16     5     6    1
    17    96    95    1
    18   109   108    2
    19   113   114    2
    20    10    11    1
    21    11    12    2
    22   110   108   am
    23   116   119    1
    24   105   104    1
    25   108   107    1
    26    95    94   ar
    27    95    93   ar
    28     6     8    1
    29   104   107    1
    30   104   103    1
    31    16    15    2
    32    94    92   ar
    33    93    91   ar
    34   100    99    2
    35   103    99   am
    36    15    14    1
    37    99    98    1
    38    13    14    1
    39    92    90   ar
    40    91    90   ar
    41    14    17    1
    42   127   129   ar
    43   127   126   ar
    44   129   131   ar
    45    17    19    1
    46    17    18    1
    47    90    89    1
    48   123   122    1
    49   123   124    2
    50   122   121    1
    51   122   125    1
    52    98   101    1
    53    98    97    1
    54   101   102    1
    55   125   126    1
    56   131   130   ar
    57   126   128   ar
    58    97    87   am
    59    89    86    1
    60    87    88    2
    61    87    86    1
    62   130   128   ar
    63    24    21    1
    64    86    85    1
    65    21    20    1
    66    21    22    1
    67    33    32    1
    68   143   141   ar
    69    32    31    1
    70    22    23    2
    71    31    30    1
    72    85    78   am
    73    30    29    1
    74    26    29    1
    75    26    25    1
    76    26    27    1
    77    79    78    2
    78    27    28    2
    79   141   140    1
    80   141   142   ar
    81   140   137    1
    82    78    77    1
    83    59    57    1
    84   132   133    1
    85   133   134    1
    86   135   134    2
    87    81    82    1
    88    81    80    1
    89   136   134   am
    90   136   137    1
    91    84    82   ar
    92   137   138    1
    93    71    70    2
    94    77    80    1
    95    77    76    1
    96    82    83   ar
    97    63    62    2
    98    70    76   am
    99    70    69    1
   100    58    57    1
   101    57    54    1
   102   139   138    2
   103    72    69    1
   104    72    73    1
   105    68    69    1
   106    75    73   am
   107    54    53    1
   108    54    55    1
   109    62    61    1
   110    42    40   ar
   111    73    74    2
   112    60    61    1
   113    66    64    1
   114    41    40   ar
   115    61    64    1
   116    40    39    1
   117    55    56    2
   118    64    65    1
   119    65    67    1
   120    52    51   ar
   121    52    50   ar
   122    51    49   ar
   123    39    38    1
   124    50    48   ar
   125    49    48   ar
   126    38    35    1
   127    48    47    1
   128    35    36    1
   129    35    34    1
   130    47    44    1
   131    37    36    2
   132    44    43    1
   133    44    45    1
   134    46    45    2
