@<TRIPOS>MOLECULE
tmp/3cr3A00.pdb
 148 137 0 0 0
SMALL
GASTEIGER

@<TRIPOS>ATOM
      1  N         91.2640    1.4910   20.8260 N.3    29  ASP29      -0.1239
      2  CA        91.4460    1.8150   22.2450 C.3    29  ASP29       0.1674
      3  C         91.7550    3.3010   22.4800 C.2    29  ASP29       0.2266
      4  O         92.0680    3.7150   23.5970 O.2    29  ASP29      -0.2867
      5  CB        92.5640    0.9460   22.8240 C.3    29  ASP29       0.1410
      6  CG        92.4650    0.7670   24.3270 C.2    29  ASP29       0.3668
      7  OD1       91.3470    0.7180   24.9090 O.co2  29  ASP29      -0.2456
      8  OD2       93.5340    0.6650   24.9420 O.co2  29  ASP29      -0.2456
      9  N         92.9960    4.1310   26.5120 N.3    34  ASP34      -0.1239
     10  CA        94.3060    4.7710   26.5330 C.3    34  ASP34       0.1674
     11  C         95.2130    4.4260   25.3530 C.2    34  ASP34       0.2266
     12  O         96.4220    4.6790   25.4060 O.2    34  ASP34      -0.2867
     13  CB        95.0260    4.4850   27.8490 C.3    34  ASP34       0.1410
     14  CG        95.1740    2.9890   28.1380 C.2    34  ASP34       0.3668
     15  OD1       94.7140    2.1250   27.3620 O.co2  34  ASP34      -0.2456
     16  OD2       95.7350    2.6800   29.1860 O.co2  34  ASP34      -0.2456
     17  N         96.3110    1.5630   23.8720 N.3    36  ASP36      -0.1225
     18  CA        97.3610    0.5640   24.0990 C.3    36  ASP36       0.1805
     19  C         96.9290   -0.9060   23.9260 C.2    36  ASP36       0.2597
     20  O         97.7660   -1.7960   24.0740 O.2    36  ASP36      -0.2718
     21  CB        97.9560    0.7440   25.5060 C.3    36  ASP36       0.1424
     22  CG        97.0370    0.2380   26.6030 C.2    36  ASP36       0.3668
     23  OD1       95.8810   -0.1460   26.3250 O.co2  36  ASP36      -0.2456
     24  OD2       97.4460    0.2300   27.7760 O.co2  36  ASP36      -0.2456
     25  N         95.6560   -1.1880   23.6320 N.am   37  HIS37      -0.1975
     26  CA        95.2310   -2.5980   23.6150 C.3    37  HIS37       0.1656
     27  C         96.0290   -3.4760   22.6480 C.2    37  HIS37       0.2291
     28  O         96.4260   -4.5740   23.0150 O.2    37  HIS37      -0.2864
     29  CB        93.7210   -2.7880   23.3760 C.3    37  HIS37       0.0771
     30  CG        93.2810   -4.2230   23.4630 C.ar   37  HIS37       0.0820
     31  ND1       93.4220   -4.9790   24.6060 N.ar   37  HIS37      -0.2267
     32  CD2       92.7150   -5.0430   22.5450 C.ar   37  HIS37       0.1154
     33  CE1       92.9420   -6.1940   24.3980 C.ar   37  HIS37       0.1986
     34  NE2       92.5160   -6.2600   23.1500 N.ar   37  HIS37      -0.2212
     35  N         99.5390   -3.9560   23.9780 N.3    40  ASN40      -0.1240
     36  CA        99.3810   -4.8700   25.1180 C.3    40  ASN40       0.1653
     37  C         99.3160   -6.3350   24.6740 C.2    40  ASN40       0.2266
     38  O        100.0720   -7.1860   25.1600 O.2    40  ASN40      -0.2867
     39  CB        98.0770   -4.5510   25.8820 C.3    40  ASN40       0.1155
     40  CG        98.2050   -3.3760   26.8690 C.2    40  ASN40       0.2627
     41  OD1       99.2950   -2.8810   27.1510 O.2    40  ASN40      -0.2716
     42  ND2       97.0650   -2.9510   27.4200 N.am   40  ASN40      -0.0877
     43  N         97.5740   -3.9650   31.1660 N.3    72  GLY72      -0.1210
     44  CA        96.2020   -3.4730   31.2560 C.3    72  GLY72       0.1956
     45  C         95.2000   -4.5450   31.6580 C.2    72  GLY72       0.2612
     46  O         95.5740   -5.6960   31.9320 O.2    72  GLY72      -0.2717
     47  N         93.9290   -4.1570   31.6790 N.am   73  ALA73      -0.1965
     48  CA        92.8120   -5.0230   32.0620 C.3    73  ALA73       0.1728
     49  C         92.7830   -6.3400   31.2900 C.2    73  ALA73       0.2616
     50  O         92.4200   -7.3750   31.8300 O.2    73  ALA73      -0.2715
     51  CB        91.4820   -4.2780   31.8760 C.3    73  ALA73       0.0334
     52  N         93.1770   -6.3060   30.0280 N.am   74  SER74      -0.1950
     53  CA        93.1620   -7.5250   29.2090 C.3    74  SER74       0.1924
     54  C         94.0480   -8.6500   29.7850 C.2    74  SER74       0.2314
     55  O         93.8150   -9.8270   29.5060 O.2    74  SER74      -0.2863
     56  CB        93.5620   -7.1910   27.7690 C.3    74  SER74       0.2116
     57  OG        94.8570   -6.6050   27.7630 O.3    74  SER74      -0.2180
     58  N         92.1370  -10.4280   32.5490 N.3    77  LEU77      -0.1245
     59  CA        90.9480  -11.0000   31.8910 C.3    77  LEU77       0.1561
     60  C         91.2310  -12.2410   31.0390 C.2    77  LEU77       0.2260
     61  O         90.6560  -13.3070   31.2700 O.2    77  LEU77      -0.2867
     62  CB        90.2070   -9.9350   31.0620 C.3    77  LEU77       0.0270
     63  CG        89.5960   -8.7840   31.8670 C.3    77  LEU77       0.0019
     64  CD1       89.2780   -7.6370   30.9120 C.3    77  LEU77       0.0001
     65  CD2       88.3740   -9.2150   32.6290 C.3    77  LEU77       0.0001
     66  N         86.0590  -14.6850   33.0270 N.3   105  ILE105     -0.1245
     67  CA        86.1400  -13.2550   32.6640 C.3   105  ILE105      0.1561
     68  C         85.0620  -12.4780   33.4060 C.2   105  ILE105      0.2260
     69  O         85.3020  -11.3710   33.9030 O.2   105  ILE105     -0.2867
     70  CB        86.0100  -13.0080   31.1220 C.3   105  ILE105      0.0252
     71  CG1       87.1400  -13.6810   30.3500 C.3   105  ILE105      0.0019
     72  CG2       86.0240  -11.4920   30.7730 C.3   105  ILE105      0.0019
     73  CD1       86.8530  -13.7750   28.8550 C.3   105  ILE105      0.0001
     74  N         86.1410   -9.4230   35.9740 N.3   109  GLY109     -0.1225
     75  CA        85.7930   -8.0430   35.6670 C.3   109  GLY109      0.1811
     76  C         84.3620   -7.6800   36.0340 C.2   109  GLY109      0.2280
     77  O         84.0020   -6.5180   35.9620 O.2   109  GLY109     -0.2866
     78  N         81.5240   -8.0950   34.5030 N.3   111  ALA111     -0.1245
     79  CA        80.7340   -7.5400   33.4150 C.3   111  ALA111      0.1562
     80  C         79.5730   -8.4620   33.0600 C.2   111  ALA111      0.2260
     81  O         79.7170   -9.6850   33.0280 O.2   111  ALA111     -0.2867
     82  CB        81.6100   -7.2650   32.1720 C.3   111  ALA111      0.0290
     83  N         79.4160   -3.7860   26.6770 N.3   116  LYS116     -0.1231
     84  CA        80.4330   -3.3440   25.7070 C.3   116  LYS116      0.1693
     85  C         81.8250   -3.8130   26.1020 C.2   116  LYS116      0.2592
     86  O         82.7480   -3.0240   26.1720 O.2   116  LYS116     -0.2718
     87  CB        80.4010   -1.8200   25.4870 C.3   116  LYS116      0.0285
     88  CG        80.9770   -1.3110   24.1500 C.3   116  LYS116      0.0035
     89  CD        81.4330    0.1400   24.3480 C.3   116  LYS116      0.0206
     90  CE        81.8080    0.8590   23.0720 C.3   116  LYS116      0.1093
     91  NZ        80.6360    1.1680   22.1950 N.3   116  LYS116     -0.1314
     92  N         81.9720   -5.1040   26.3870 N.am  117  THR117     -0.1953
     93  CA        83.3010   -5.6780   26.6200 C.3   117  THR117      0.1897
     94  C         83.3910   -7.0070   25.8660 C.2   117  THR117      0.2313
     95  O         82.3930   -7.4640   25.3030 O.2   117  THR117     -0.2863
     96  CB        83.5690   -5.9740   28.1040 C.3   117  THR117      0.1794
     97  OG1       82.7590   -7.0830   28.5170 O.3   117  THR117     -0.2208
     98  CG2       83.3060   -4.7630   29.0040 C.3   117  THR117      0.0378
     99  N         83.2940   -9.8520   27.0320 N.3   118  VAL118     -0.1245
    100  CA        82.2160  -10.7090   27.5550 C.3   118  VAL118      0.1561
    101  C         81.0900  -10.8990   26.5190 C.2   118  VAL118      0.2260
    102  O         80.5260  -11.9870   26.3820 O.2   118  VAL118     -0.2867
    103  CB        81.6480  -10.1280   28.8910 C.3   118  VAL118      0.0252
    104  CG1       80.3170  -10.7670   29.2700 C.3   118  VAL118      0.0019
    105  CG2       82.6550  -10.3090   30.0320 C.3   118  VAL118      0.0019
    106  N         81.8010   -0.4880   31.6710 N.3   152  LYS152     -0.1231
    107  CA        82.9100   -1.1730   32.3320 C.3   152  LYS152      0.1693
    108  C         84.2480   -0.7560   31.7500 C.2   152  LYS152      0.2593
    109  O         84.3770   -0.4790   30.5430 O.2   152  LYS152     -0.2718
    110  CB        82.7460   -2.7010   32.2130 C.3   152  LYS152      0.0285
    111  CG        81.5880   -3.3050   33.0510 C.3   152  LYS152      0.0035
    112  CD        82.0130   -3.5470   34.4960 C.3   152  LYS152      0.0206
    113  CE        80.8150   -3.6660   35.3860 C.3   152  LYS152      0.1093
    114  NZ        81.2360   -3.8330   36.8050 N.3   152  LYS152     -0.1314
    115  N         85.2620   -0.7180   32.6020 N.am  153  GLY153     -0.1942
    116  CA        86.6250   -0.4270   32.1430 C.3   153  GLY153      0.2014
    117  C         86.8370    1.0460   31.8630 C.2   153  GLY153      0.2638
    118  O         86.0110    1.8860   32.2250 O.2   153  GLY153     -0.2714
    119  N         87.9410    1.3640   31.1940 N.am  154  ARG154     -0.1977
    120  CA        88.2830    2.7470   30.8860 C.3   154  ARG154      0.1597
    121  C         87.2450    3.4440   30.0080 C.2   154  ARG154      0.2287
    122  O         87.0050    4.6500   30.1640 O.2   154  ARG154     -0.2864
    123  CB        89.6530    2.8100   30.2300 C.3   154  ARG154      0.0334
    124  CG        90.7920    2.5940   31.2320 C.3   154  ARG154      0.0492
    125  CD        92.1030    2.7580   30.5350 C.3   154  ARG154      0.2205
    126  NE        93.2310    2.5550   31.4370 N.pl3 154  ARG154     -0.0865
    127  CZ        94.0730    3.5120   31.8170 C.cat 154  ARG154      0.5346
    128  NH1       93.8980    4.7680   31.3980 N.pl3 154  ARG154      0.1354
    129  NH2       95.0910    3.2090   32.6210 N.pl3 154  ARG154      0.1354
    130  N         84.5740   -1.7590   20.4760 N.3   167  ASP167     -0.1225
    131  CA        85.3630   -2.1470   21.6500 C.3   167  ASP167      0.1790
    132  C         86.6200   -2.9460   21.2630 C.2   167  ASP167      0.2440
    133  O         86.5130   -3.9510   20.5800 O.2   167  ASP167     -0.2733
    134  CB        84.5130   -3.0080   22.5790 C.3   167  ASP167      0.1423
    135  CG        85.2490   -3.3970   23.8410 C.2   167  ASP167      0.3668
    136  OD1       85.7320   -2.4890   24.5630 O.co2 167  ASP167     -0.2456
    137  OD2       85.3510   -4.6100   24.1000 O.co2 167  ASP167     -0.2456
    138  N         87.8100   -2.4900   21.6810 N.am  168  PRO168     -0.2718
    139  CA        89.0360   -3.2110   21.3010 C.3   168  PRO168      0.1535
    140  C         89.1570   -4.6740   21.8090 C.2   168  PRO168      0.2599
    141  O         89.5720   -5.5280   21.0470 O.2   168  PRO168     -0.2715
    142  CB        90.1740   -2.3300   21.8540 C.3   168  PRO168      0.0310
    143  CG        89.5590   -1.3820   22.7940 C.3   168  PRO168      0.0237
    144  CD        88.0900   -1.2490   22.4320 C.3   168  PRO168      0.0939
    145  N         88.8110   -4.9440   23.0640 N.am  169  GLY169     -0.1955
    146  CA        88.8040   -6.2980   23.5920 C.3   169  GLY169      0.1869
    147  C         87.8640   -7.2270   22.8350 C.2   169  GLY169      0.2309
    148  O         88.1660   -8.4090   22.6640 O.2   169  GLY169     -0.2863
@<TRIPOS>BOND
     1   130   131    1
     2   133   132    2
     3     1     2    1
     4   141   140    2
     5   132   131    1
     6   132   138   am
     7   139   138    1
     8   139   140    1
     9   139   142    1
    10   131   134    1
    11   138   144    1
    12   140   145   am
    13   142   143    1
    14    91    90    1
    15     2     3    1
    16     2     5    1
    17   144   143    1
    18     3     4    2
    19    32    34   ar
    20    32    30   ar
    21   134   135    1
    22    27    28    2
    23    27    26    1
    24   148   147    2
    25     5     6    1
    26   147   146    1
    27   145   146    1
    28    90    89    1
    29    34    33   ar
    30    29    30    1
    31    29    26    1
    32    30    31   ar
    33    26    25    1
    34    25    19   am
    35   135   137   ar
    36   135   136   ar
    37    17    18    1
    38    19    20    2
    39    19    18    1
    40    35    36    1
    41    18    21    1
    42    88    89    1
    43    88    87    1
    44     6     7   ar
    45     6     8   ar
    46    33    31   ar
    47    37    36    1
    48    37    38    2
    49    36    39    1
    50    95    94    2
    51    11    12    2
    52    11    10    1
    53    87    84    1
    54    21    22    1
    55    84    85    1
    56    84    83    1
    57    94    93    1
    58    39    40    1
    59    85    86    2
    60    85    92   am
    61    23    22   ar
    62   102   101    2
    63    92    93    1
    64     9    10    1
    65   101   100    1
    66    10    13    1
    67    22    24   ar
    68    93    96    1
    69    40    41    2
    70    40    42   am
    71    99   100    1
    72    15    14   ar
    73   100   103    1
    74    57    56    1
    75    56    53    1
    76    13    14    1
    77    96    97    1
    78    96    98    1
    79    14    16   ar
    80    73    71    1
    81   103   104    1
    82   103   105    1
    83    53    54    1
    84    53    52    1
    85    55    54    2
    86   121   122    2
    87   121   120    1
    88    52    49   am
    89   123   120    1
    90   123   124    1
    91    71    70    1
    92   125   124    1
    93   125   126    1
    94   109   108    2
    95    72    70    1
    96   120   119    1
    97    64    63    1
    98    60    61    2
    99    60    59    1
   100    62    63    1
   101    62    59    1
   102    70    67    1
   103    43    44    1
   104   119   117   am
   105    44    45    1
   106    49    50    2
   107    49    48    1
   108   128   127    1
   109   126   127    2
   110    45    47   am
   111    45    46    2
   112   106   107    1
   113    47    48    1
   114   108   107    1
   115   108   115   am
   116   127   129    1
   117   117   116    1
   118   117   118    2
   119    63    65    1
   120    51    48    1
   121    59    58    1
   122   116   115    1
   123    82    79    1
   124   110   107    1
   125   110   111    1
   126    67    66    1
   127    67    68    1
   128    81    80    2
   129   111   112    1
   130    80    79    1
   131    68    69    2
   132    79    78    1
   133   112   113    1
   134   113   114    1
   135    75    74    1
   136    75    76    1
   137    77    76    2
