@<TRIPOS>MOLECULE
tmp/3cr7A01.pdb
 167 160 0 0 0
SMALL
GASTEIGER

@<TRIPOS>ATOM
      1  N         24.0220   69.3040   64.7520 N.3    11  SER11      -0.1217
      2  CA        22.7590   68.8140   65.2650 C.3    11  SER11       0.1889
      3  C         21.9430   70.0040   65.7410 C.2    11  SER11       0.2288
      4  O         22.4810   70.9680   66.2900 O.2    11  SER11      -0.2866
      5  CB        22.9480   67.7760   66.3720 C.3    11  SER11       0.2089
      6  OG        23.6600   68.3140   67.4660 O.3    11  SER11      -0.2183
      7  N         18.2040   70.0380   59.8490 N.3    15  LYS15      -0.1231
      8  CA        18.2380   69.1580   58.6800 C.3    15  LYS15       0.1693
      9  C         16.9660   68.3270   58.5490 C.2    15  LYS15       0.2592
     10  O         16.2210   68.5100   57.5940 O.2    15  LYS15      -0.2718
     11  CB        19.4730   68.2500   58.6980 C.3    15  LYS15       0.0285
     12  CG        20.7780   68.9740   58.9120 C.3    15  LYS15       0.0035
     13  CD        21.9330   67.9910   58.9520 C.3    15  LYS15       0.0206
     14  CE        21.7960   67.0420   60.1460 C.3    15  LYS15       0.1093
     15  NZ        21.8450   67.7940   61.4440 N.3    15  LYS15      -0.1314
     16  N         16.7090   67.4280   59.5000 N.am   16  SER16      -0.1952
     17  CA        15.5650   66.5120   59.3680 C.3    16  SER16       0.1924
     18  C         14.2910   67.2810   59.0820 C.2    16  SER16       0.2314
     19  O         13.4150   66.8050   58.3620 O.2    16  SER16      -0.2863
     20  CB        15.3390   65.6720   60.6260 C.3    16  SER16       0.2116
     21  OG        16.5490   65.3530   61.2700 O.3    16  SER16      -0.2180
     22  N         18.5810   59.2890   60.8820 N.3    39  GLY39      -0.1225
     23  CA        18.9550   58.4890   62.0340 C.3    39  GLY39       0.1811
     24  C         18.1060   57.2540   62.2750 C.2    39  GLY39       0.2280
     25  O         18.6230   56.1870   62.5910 O.2    39  GLY39      -0.2866
     26  N         20.5260   54.4430   61.5490 N.3    43  ARG43      -0.1245
     27  CA        21.3470   54.1540   62.7150 C.3    43  ARG43       0.1563
     28  C         20.7940   53.0740   63.6410 C.2    43  ARG43       0.2260
     29  O         21.5230   52.5300   64.4630 O.2    43  ARG43      -0.2867
     30  CB        21.6690   55.4300   63.4930 C.3    43  ARG43       0.0307
     31  CG        22.7890   56.2450   62.8820 C.3    43  ARG43       0.0489
     32  CD        23.3810   57.1560   63.9390 C.3    43  ARG43       0.2205
     33  NE        24.6810   57.7120   63.5520 N.pl3  43  ARG43      -0.0865
     34  CZ        25.8520   57.1840   63.8920 C.cat  43  ARG43       0.5346
     35  NH1       25.8950   56.0800   64.6240 N.pl3  43  ARG43       0.1354
     36  NH2       26.9740   57.7620   63.4980 N.pl3  43  ARG43       0.1354
     37  N         30.1180   56.7730   67.3710 N.3    52  PHE52      -0.1241
     38  CA        30.4340   58.1380   66.9770 C.3    52  PHE52       0.1605
     39  C         31.9020   58.4560   66.9860 C.2    52  PHE52       0.2264
     40  O         32.2920   59.6230   67.0000 O.2    52  PHE52      -0.2867
     41  CB        29.6970   59.1140   67.8720 C.3    52  PHE52       0.0534
     42  CG        28.2700   59.2500   67.5090 C.ar   52  PHE52      -0.0203
     43  CD1       27.3140   58.4150   68.0700 C.ar   52  PHE52      -0.0042
     44  CD2       27.8860   60.1660   66.5460 C.ar   52  PHE52      -0.0042
     45  CE1       25.9770   58.5220   67.7050 C.ar   52  PHE52      -0.0003
     46  CE2       26.5620   60.2880   66.1700 C.ar   52  PHE52      -0.0003
     47  CZ        25.5970   59.4640   66.7490 C.ar   52  PHE52      -0.0000
     48  N         32.1480   57.2030   62.1540 N.3    57  ARG57      -0.1245
     49  CA        31.4740   58.2460   61.4110 C.3    57  ARG57       0.1563
     50  C         31.8880   58.1830   59.9450 C.2    57  ARG57       0.2260
     51  O         31.0750   58.4300   59.0520 O.2    57  ARG57      -0.2867
     52  CB        31.7730   59.6240   62.0180 C.3    57  ARG57       0.0307
     53  CG        31.3930   59.7300   63.4840 C.3    57  ARG57       0.0489
     54  CD        31.8690   61.0500   64.0690 C.3    57  ARG57       0.2205
     55  NE        30.7980   62.0490   64.1090 N.pl3  57  ARG57      -0.0865
     56  CZ        30.4080   62.6920   65.2070 C.cat  57  ARG57       0.5346
     57  NH1       31.0060   62.4650   66.3670 N.pl3  57  ARG57       0.1354
     58  NH2       29.4260   63.5730   65.1390 N.pl3  57  ARG57       0.1354
     59  N         29.8840   55.1150   58.8180 N.3    60  ASN60      -0.1225
     60  CA        28.4810   55.5350   58.8000 C.3    60  ASN60       0.1785
     61  C         28.1550   56.2600   57.5080 C.2    60  ASN60       0.2597
     62  O         27.1540   55.9790   56.8520 O.2    60  ASN60      -0.2718
     63  CB        28.1590   56.4260   60.0060 C.3    60  ASN60       0.1169
     64  CG        26.7420   56.9810   59.9650 C.2    60  ASN60       0.2627
     65  OD1       25.7800   56.2580   59.6860 O.2    60  ASN60      -0.2716
     66  ND2       26.6070   58.2630   60.2590 N.am   60  ASN60      -0.0877
     67  N         29.0290   57.1830   57.1320 N.am   61  ILE61      -0.1980
     68  CA        28.8090   57.9970   55.9420 C.3    61  ILE61       0.1595
     69  C         29.1140   57.2200   54.6590 C.2    61  ILE61       0.2287
     70  O         28.4530   57.4090   53.6390 O.2    61  ILE61      -0.2864
     71  CB        29.6270   59.3030   56.0170 C.3    61  ILE61       0.0276
     72  CG1       29.1070   60.1580   57.1680 C.3    61  ILE61       0.0022
     73  CG2       29.5230   60.0780   54.7220 C.3    61  ILE61       0.0022
     74  CD1       27.6210   60.4500   57.0540 C.3    61  ILE61       0.0001
     75  N         22.3960   63.5170   57.5660 N.3    82  PHE82      -0.1227
     76  CA        23.2900   63.2400   58.6740 C.3    82  PHE82       0.1736
     77  C         24.2140   64.3980   58.8660 C.2    82  PHE82       0.2595
     78  O         24.4630   65.1650   57.9440 O.2    82  PHE82      -0.2718
     79  CB        24.0640   61.9610   58.4060 C.3    82  PHE82       0.0547
     80  CG        23.1760   60.8030   58.1590 C.ar   82  PHE82      -0.0202
     81  CD1       22.7040   60.5460   56.8830 C.ar   82  PHE82      -0.0042
     82  CD2       22.7480   60.0140   59.2180 C.ar   82  PHE82      -0.0042
     83  CE1       21.8490   59.4830   56.6460 C.ar   82  PHE82      -0.0003
     84  CE2       21.8940   58.9450   59.0030 C.ar   82  PHE82      -0.0003
     85  CZ        21.4410   58.6750   57.7130 C.ar   82  PHE82      -0.0000
     86  N         24.6930   64.5530   60.0860 N.am   83  ILE83      -0.1966
     87  CA        25.6310   65.6190   60.3880 C.3    83  ILE83       0.1727
     88  C         26.7790   65.6270   59.3740 C.2    83  ILE83       0.2617
     89  O         27.1970   66.6910   58.9140 O.2    83  ILE83      -0.2715
     90  CB        26.1860   65.4620   61.8020 C.3    83  ILE83       0.0290
     91  CG1       25.1560   65.9530   62.8190 C.3    83  ILE83       0.0022
     92  CG2       27.4630   66.2470   61.9380 C.3    83  ILE83       0.0023
     93  CD1       25.5810   65.7530   64.2470 C.3    83  ILE83       0.0001
     94  N         27.2650   64.4350   59.0200 N.am   84  SER84      -0.1936
     95  CA        28.3980   64.2560   58.0900 C.3    84  SER84       0.2040
     96  C         29.4620   65.3530   58.1380 C.2    84  SER84       0.2485
     97  O         29.6270   66.1080   57.1760 O.2    84  SER84      -0.2729
     98  CB        27.8990   64.0480   56.6560 C.3    84  SER84       0.2129
     99  OG        26.7840   64.8680   56.3750 O.3    84  SER84      -0.2179
    100  N         30.2150   65.4030   59.2490 N.am   85  PRO85      -0.2726
    101  CA        31.0540   66.5530   59.5950 C.3    85  PRO85       0.1402
    102  C         32.3930   66.5160   58.9050 C.2    85  PRO85       0.2269
    103  O         33.0930   67.5220   58.8830 O.2    85  PRO85      -0.2865
    104  CB        31.2720   66.3930   61.1100 C.3    85  PRO85       0.0296
    105  CG        30.6530   64.9960   61.4930 C.3    85  PRO85       0.0237
    106  CD        30.4150   64.2850   60.1850 C.3    85  PRO85       0.0939
    107  N         17.0740   68.0170   72.6980 N.3   122  LYS122     -0.1245
    108  CA        17.1510   66.7650   73.4460 C.3   122  LYS122      0.1561
    109  C         18.2640   66.8610   74.4660 C.2   122  LYS122      0.2260
    110  O         18.6440   65.8790   75.0940 O.2   122  LYS122     -0.2867
    111  CB        17.4000   65.6170   72.4890 C.3   122  LYS122      0.0271
    112  CG        16.7770   65.8680   71.1500 C.3   122  LYS122      0.0035
    113  CD        17.2880   64.8970   70.1450 C.3   122  LYS122      0.0206
    114  CE        16.6290   63.5530   70.3290 C.3   122  LYS122      0.1093
    115  NZ        17.2590   62.5480   69.4430 N.3   122  LYS122     -0.1314
    116  N         21.5230   67.5540   74.2390 N.3   124  LEU124     -0.1245
    117  CA        22.8630   67.0020   73.9840 C.3   124  LEU124      0.1561
    118  C         23.9850   68.0250   74.1550 C.2   124  LEU124      0.2260
    119  O         25.0900   67.6890   74.5820 O.2   124  LEU124     -0.2867
    120  CB        22.9440   66.3330   72.6010 C.3   124  LEU124      0.0270
    121  CG        22.3150   64.9410   72.5290 C.3   124  LEU124      0.0019
    122  CD1       21.3920   64.6800   73.7310 C.3   124  LEU124      0.0001
    123  CD2       21.5860   64.7940   71.2070 C.3   124  LEU124      0.0001
    124  N         28.4660   63.6500   77.2510 N.3   133  ILE133     -0.1231
    125  CA        28.6820   63.0770   75.9420 C.3   133  ILE133      0.1692
    126  C         30.0450   63.5070   75.4630 C.2   133  ILE133      0.2592
    127  O         30.4090   64.6720   75.5580 O.2   133  ILE133     -0.2718
    128  CB        27.6130   63.4750   74.9250 C.3   133  ILE133      0.0266
    129  CG1       26.2460   62.9860   75.3910 C.3   133  ILE133      0.0019
    130  CG2       27.9500   62.8750   73.5610 C.3   133  ILE133      0.0020
    131  CD1       25.1170   63.5320   74.5570 C.3   133  ILE133      0.0001
    132  N         30.8200   62.5440   74.9850 N.am  134  LYS134     -0.1966
    133  CA        32.1750   62.8350   74.5120 C.3   134  LYS134      0.1728
    134  C         32.2130   62.9990   73.0150 C.2   134  LYS134      0.2616
    135  O         31.3930   62.4430   72.3150 O.2   134  LYS134     -0.2715
    136  CB        33.1720   61.7690   74.9590 C.3   134  LYS134      0.0311
    137  CG        33.9750   62.2240   76.1430 C.3   134  LYS134      0.0038
    138  CD        34.0270   61.1400   77.1770 C.3   134  LYS134      0.0206
    139  CE        34.5020   59.8310   76.5890 C.3   134  LYS134      0.1093
    140  NZ        34.7790   58.8780   77.6940 N.3   134  LYS134     -0.1314
    141  N         33.1600   63.7880   72.5260 N.am  135  GLU135     -0.1963
    142  CA        33.3420   63.9320   71.0870 C.3   135  GLU135      0.1733
    143  C         32.0650   64.3570   70.3960 C.2   135  GLU135      0.2616
    144  O         31.5840   63.6920   69.4790 O.2   135  GLU135     -0.2715
    145  CB        33.7590   62.5970   70.4980 C.3   135  GLU135      0.0429
    146  CG        35.2230   62.3460   70.5030 C.3   135  GLU135      0.1163
    147  CD        35.5540   61.0730   69.7860 C.2   135  GLU135      0.3649
    148  OE1       35.0290   60.0080   70.1880 O.co2 135  GLU135     -0.2457
    149  OE2       36.3230   61.1440   68.8120 O.co2 135  GLU135     -0.2457
    150  N         31.5120   65.4650   70.8520 N.am  136  PHE136     -0.1960
    151  CA        30.2680   65.9550   70.3010 C.3   136  PHE136      0.1771
    152  C         30.5480   66.9980   69.2410 C.2   136  PHE136      0.2620
    153  O         31.2580   67.9670   69.4800 O.2   136  PHE136     -0.2715
    154  CB        29.4110   66.5360   71.4120 C.3   136  PHE136      0.0574
    155  CG        27.9970   66.7780   71.0110 C.ar  136  PHE136     -0.0200
    156  CD1       27.5960   68.0330   70.5650 C.ar  136  PHE136     -0.0042
    157  CD2       27.0670   65.7490   71.0670 C.ar  136  PHE136     -0.0042
    158  CE1       26.2810   68.2740   70.1890 C.ar  136  PHE136     -0.0003
    159  CE2       25.7510   65.9670   70.6980 C.ar  136  PHE136     -0.0003
    160  CZ        25.3500   67.2380   70.2550 C.ar  136  PHE136     -0.0000
    161  N         29.9900   66.7800   68.0590 N.am  137  THR137     -0.1951
    162  CA        30.1980   67.6840   66.9400 C.3   137  THR137      0.1897
    163  C         29.9280   69.1340   67.3310 C.2   137  THR137      0.2313
    164  O         28.8690   69.4550   67.8540 O.2   137  THR137     -0.2863
    165  CB        29.3030   67.2980   65.7560 C.3   137  THR137      0.1794
    166  OG1       29.6670   65.9930   65.2890 O.3   137  THR137     -0.2208
    167  CG2       29.4560   68.2960   64.6220 C.3   137  THR137      0.0378
@<TRIPOS>BOND
     1    70    69    2
     2    69    68    1
     3    73    71    1
     4    68    71    1
     5    68    67    1
     6    71    72    1
     7    99    98    1
     8    83    81   ar
     9    83    85   ar
    10    98    95    1
    11    62    61    2
    12    81    80   ar
    13    74    72    1
    14    67    61   am
    15    97    96    2
    16    61    60    1
    17    75    76    1
    18    10     9    2
    19    85    84   ar
    20    78    77    2
    21    95    96    1
    22    95    94    1
    23    96   100   am
    24    80    79    1
    25    80    82   ar
    26    19    18    2
    27    79    76    1
    28     9     8    1
    29     9    16   am
    30    76    77    1
    31     8    11    1
    32     8     7    1
    33    11    12    1
    34    60    59    1
    35    60    63    1
    36    77    86   am
    37   103   102    2
    38   102   101    1
    39    12    13    1
    40    89    88    2
    41    13    14    1
    42    84    82   ar
    43    94    88   am
    44    51    50    2
    45    18    17    1
    46   100   101    1
    47   100   106    1
    48    17    16    1
    49    17    20    1
    50    88    87    1
    51   101   104    1
    52    65    64    2
    53    50    49    1
    54    64    63    1
    55    64    66   am
    56    86    87    1
    57    14    15    1
    58   106   105    1
    59    87    90    1
    60    20    21    1
    61    22    23    1
    62   104   105    1
    63    49    52    1
    64    49    48    1
    65    26    27    1
    66    90    92    1
    67    90    91    1
    68    52    53    1
    69    23    24    1
    70    24    25    2
    71    27    30    1
    72    27    28    1
    73    91    93    1
    74    31    30    1
    75    31    32    1
    76    53    54    1
    77    36    34    1
    78    33    34    2
    79    33    32    1
    80    28    29    2
    81    34    35    1
    82    54    55    1
    83    55    56    2
    84   167   165    1
    85     1     2    1
    86    58    56    1
    87    56    57    1
    88     2     3    1
    89     2     5    1
    90   166   165    1
    91     3     4    2
    92   165   162    1
    93    46    44   ar
    94    46    47   ar
    95     5     6    1
    96    44    42   ar
    97    47    45   ar
    98   162   163    1
    99   162   161    1
   100    38    39    1
   101    38    37    1
   102    38    41    1
   103    39    40    2
   104   163   164    2
   105    42    41    1
   106    42    43   ar
   107    45    43   ar
   108   161   152   am
   109   149   147   ar
   110   152   153    2
   111   152   151    1
   112   115   114    1
   113   144   143    2
   114   147   148   ar
   115   147   146    1
   116   113   114    1
   117   113   112    1
   118   158   160   ar
   119   158   156   ar
   120   160   159   ar
   121   151   150    1
   122   151   154    1
   123   143   150   am
   124   143   142    1
   125   145   146    1
   126   145   142    1
   127   156   155   ar
   128   159   157   ar
   129   155   157   ar
   130   155   154    1
   131   142   141    1
   132   112   111    1
   133   123   121    1
   134   135   134    2
   135   111   108    1
   136   141   134   am
   137   121   120    1
   138   121   122    1
   139   120   117    1
   140   107   108    1
   141   134   133    1
   142   108   109    1
   143   130   128    1
   144   117   118    1
   145   117   116    1
   146   118   119    2
   147   109   110    2
   148   133   136    1
   149   133   132    1
   150   131   129    1
   151   128   129    1
   152   128   125    1
   153   136   137    1
   154   132   126   am
   155   126   127    2
   156   126   125    1
   157   125   124    1
   158   137   138    1
   159   139   138    1
   160   139   140    1
