@<TRIPOS>MOLECULE
tmp/3cr9A00.pdb
 84 83 0 0 0
SMALL
GASTEIGER

@<TRIPOS>ATOM
      1  N        -19.2330   21.6300  -22.3020 N.3   430  PRO430     -0.2102
      2  CA       -18.9010   21.0040  -23.5860 C.3   430  PRO430      0.1504
      3  C        -19.9810   19.9680  -23.8340 C.2   430  PRO430      0.2576
      4  O        -20.3690   19.2590  -22.9030 O.2   430  PRO430     -0.2718
      5  CB       -17.5370   20.3810  -23.3160 C.3   430  PRO430      0.0282
      6  CG       -16.9050   21.3900  -22.3800 C.3   430  PRO430      0.0208
      7  CD       -18.0520   21.6880  -21.4170 C.3   430  PRO430      0.0893
      8  N        -20.4990   19.9040  -25.0600 N.am  431  GLU431     -0.1966
      9  CA       -21.5400   18.9250  -25.3560 C.3   431  GLU431      0.1733
     10  C        -21.1280   17.7930  -26.2940 C.2   431  GLU431      0.2616
     11  O        -21.9610   16.9780  -26.6920 O.2   431  GLU431     -0.2715
     12  CB       -22.8190   19.6020  -25.8690 C.3   431  GLU431      0.0429
     13  CG       -22.6400   20.8670  -26.6860 C.3   431  GLU431      0.1163
     14  CD       -23.9770   21.4600  -27.1270 C.2   431  GLU431      0.3649
     15  OE1      -24.5370   20.9920  -28.1460 O.co2 431  GLU431     -0.2457
     16  OE2      -24.4740   22.3840  -26.4440 O.co2 431  GLU431     -0.2457
     17  N        -19.8360   17.7390  -26.6170 N.am  432  GLY432     -0.1955
     18  CA       -19.2860   16.6870  -27.4620 C.3   432  GLY432      0.1869
     19  C        -19.7960   16.6210  -28.8820 C.2   432  GLY432      0.2309
     20  O        -20.4680   17.5390  -29.3520 O.2   432  GLY432     -0.2863
     21  N        -21.3960    9.1340  -28.8730 N.3   591  ARG591     -0.1231
     22  CA       -21.3290   10.5090  -28.4090 C.3   591  ARG591      0.1694
     23  C        -19.8860   10.6780  -27.9170 C.2   591  ARG591      0.2592
     24  O        -19.5400   10.1210  -26.8860 O.2   591  ARG591     -0.2718
     25  CB       -22.3320   10.6290  -27.2550 C.3   591  ARG591      0.0321
     26  CG       -22.2860   11.9070  -26.4510 C.3   591  ARG591      0.0489
     27  CD       -22.5860   13.1340  -27.2960 C.3   591  ARG591      0.2205
     28  NE       -23.9760   13.5700  -27.2150 N.pl3 591  ARG591     -0.0865
     29  CZ       -24.4940   14.4510  -28.0670 C.cat 591  ARG591      0.5346
     30  NH1      -23.7240   14.9430  -29.0370 N.pl3 591  ARG591      0.1354
     31  NH2      -25.7520   14.8700  -27.9430 N.pl3 591  ARG591      0.1354
     32  N        -19.0470   11.4310  -28.6360 N.am  592  ALA592     -0.1966
     33  CA       -17.6260   11.6000  -28.2570 C.3   592  ALA592      0.1713
     34  C        -17.2540   12.8780  -27.5130 C.2   592  ALA592      0.2458
     35  O        -17.9480   13.8820  -27.6150 O.2   592  ALA592     -0.2730
     36  CB       -16.7780   11.4990  -29.4850 C.3   592  ALA592      0.0333
     37  N        -16.1400   12.8680  -26.7640 N.am  593  PRO593     -0.2716
     38  CA       -15.7370   14.0800  -26.0300 C.3   593  PRO593      0.1536
     39  C        -15.0790   15.0690  -26.9830 C.2   593  PRO593      0.2598
     40  O        -14.2460   14.6600  -27.7910 O.2   593  PRO593     -0.2715
     41  CB       -14.7410   13.5530  -25.0000 C.3   593  PRO593      0.0310
     42  CG       -15.1310   12.0910  -24.8430 C.3   593  PRO593      0.0237
     43  CD       -15.4370   11.6840  -26.2520 C.3   593  PRO593      0.0939
     44  N        -15.4410   16.3530  -26.8970 N.am  594  ASN594     -0.1973
     45  CA       -14.8370   17.3380  -27.7910 C.3   594  ASN594      0.1688
     46  C        -13.3290   17.1810  -27.6010 C.2   594  ASN594      0.2292
     47  O        -12.9000   16.6570  -26.5770 O.2   594  ASN594     -0.2864
     48  CB       -15.2130   18.7750  -27.4150 C.3   594  ASN594      0.1181
     49  CG       -16.7010   19.0090  -27.2930 C.2   594  ASN594      0.2629
     50  OD1      -17.3100   18.8190  -26.2330 O.2   594  ASN594     -0.2716
     51  ND2      -17.2960   19.4590  -28.3800 N.am  594  ASN594     -0.0877
     52  N        -14.3480   18.4650  -14.9100 N.3   654  LYS654     -0.1245
     53  CA       -13.7230   17.2800  -15.4740 C.3   654  LYS654      0.1561
     54  C        -12.2830   17.7110  -15.7590 C.2   654  LYS654      0.2260
     55  O        -11.9660   18.1460  -16.8660 O.2   654  LYS654     -0.2867
     56  CB       -14.4630   16.8630  -16.7580 C.3   654  LYS654      0.0271
     57  CG       -15.7580   16.0250  -16.5330 C.3   654  LYS654      0.0035
     58  CD       -17.0380   16.6520  -17.1540 C.3   654  LYS654      0.0206
     59  CE       -17.6040   15.8600  -18.3480 C.3   654  LYS654      0.1093
     60  NZ       -18.8910   15.1400  -18.0670 N.3   654  LYS654     -0.1314
     61  N        -12.7660   13.6190  -17.6500 N.3   660  TYR660     -0.1227
     62  CA       -13.1430   14.2100  -18.9340 C.3   660  TYR660      0.1736
     63  C        -13.6850   13.2130  -19.9580 C.2   660  TYR660      0.2595
     64  O        -14.8000   13.3750  -20.4480 O.2   660  TYR660     -0.2718
     65  CB       -11.9690   14.9990  -19.5470 C.3   660  TYR660      0.0548
     66  CG       -12.3240   15.7730  -20.8160 C.ar  660  TYR660     -0.0200
     67  CD1      -13.2130   16.8570  -20.7840 C.ar  660  TYR660     -0.0009
     68  CD2      -11.8040   15.3960  -22.0480 C.ar  660  TYR660     -0.0009
     69  CE1      -13.5770   17.5360  -21.9480 C.ar  660  TYR660      0.0417
     70  CE2      -12.1580   16.0650  -23.2140 C.ar  660  TYR660      0.0417
     71  CZ       -13.0450   17.1330  -23.1600 C.ar  660  TYR660      0.1957
     72  OH       -13.4000   17.7860  -24.3210 O.3   660  TYR660     -0.2866
     73  N        -12.9110   12.1880  -20.2930 N.am  661  LEU661     -0.1966
     74  CA       -13.3680   11.1960  -21.2670 C.3   661  LEU661      0.1728
     75  C        -14.5880   10.4650  -20.7530 C.2   661  LEU661      0.2616
     76  O        -15.4450   10.0470  -21.5260 O.2   661  LEU661     -0.2715
     77  CB       -12.3080   10.1410  -21.5300 C.3   661  LEU661      0.0311
     78  CG       -10.9050   10.5260  -21.9650 C.3   661  LEU661      0.0022
     79  CD1      -10.0540    9.2790  -21.9650 C.3   661  LEU661      0.0001
     80  CD2      -10.9320   11.1560  -23.3370 C.3   661  LEU661      0.0001
     81  N        -14.6450   10.2810  -19.4410 N.am  662  GLY662     -0.1955
     82  CA       -15.7690    9.5830  -18.8470 C.3   662  GLY662      0.1869
     83  C        -15.5030    8.1020  -18.6730 C.2   662  GLY662      0.2309
     84  O        -14.6390    7.5370  -19.3360 O.2   662  GLY662     -0.2863
@<TRIPOS>BOND
     1    36    33    1
     2    20    19    2
     3    30    29    1
     4    19    18    1
     5    21    22    1
     6    32    33    1
     7    32    23   am
     8    22    23    1
     9    22    25    1
    10    51    49   am
    11    33    34    1
    12    15    14   ar
    13    29    31    1
    14    29    28    2
    15    23    24    2
    16    40    39    2
    17    45    46    1
    18    45    48    1
    19    45    44    1
    20    35    34    2
    21    46    47    2
    22    34    37   am
    23    18    17    1
    24    48    49    1
    25    27    28    1
    26    27    26    1
    27    49    50    2
    28    25    26    1
    29    14    13    1
    30    14    16   ar
    31    39    44   am
    32    39    38    1
    33    37    43    1
    34    37    38    1
    35    11    10    2
    36    13    12    1
    37    17    10   am
    38    10     9    1
    39    43    42    1
    40    38    41    1
    41    12     9    1
    42     9     8    1
    43     8     3   am
    44    41    42    1
    45    72    71    1
    46     3     2    1
    47     3     4    2
    48     2     5    1
    49     2     1    1
    50    80    78    1
    51     5     6    1
    52    70    71   ar
    53    70    68   ar
    54    71    69   ar
    55     6     7    1
    56     1     7    1
    57    68    66   ar
    58    79    78    1
    59    78    77    1
    60    69    67   ar
    61    77    74    1
    62    76    75    2
    63    74    75    1
    64    74    73    1
    65    66    67   ar
    66    66    65    1
    67    75    81   am
    68    64    63    2
    69    73    63   am
    70    63    62    1
    71    65    62    1
    72    81    82    1
    73    84    83    2
    74    62    61    1
    75    82    83    1
    76    59    60    1
    77    59    58    1
    78    58    57    1
    79    55    54    2
    80    56    57    1
    81    56    53    1
    82    54    53    1
    83    53    52    1
