@<TRIPOS>MOLECULE
tmp/3crcB00.pdb
 123 118 0 0 0
SMALL
GASTEIGER

@<TRIPOS>ATOM
      1  N          4.8320   14.6420   59.9170 N.3   116  PHE116     -0.1227
      2  CA         6.1650   15.1450   60.0270 C.3   116  PHE116      0.1736
      3  C          6.9870   14.8720   61.3800 C.2   116  PHE116      0.2595
      4  O          7.2460   15.7840   62.1490 O.2   116  PHE116     -0.2718
      5  CB         6.1090   16.5580   59.7010 C.3   116  PHE116      0.0547
      6  CG         7.3860   17.2000   59.8340 C.ar  116  PHE116     -0.0202
      7  CD1        8.1560   17.5390   58.6570 C.ar  116  PHE116     -0.0042
      8  CD2        7.9200   17.4750   61.0970 C.ar  116  PHE116     -0.0042
      9  CE1        9.4620   18.2220   58.6860 C.ar  116  PHE116     -0.0003
     10  CE2        9.2670   18.1760   61.2210 C.ar  116  PHE116     -0.0003
     11  CZ        10.0310   18.5650   59.9680 C.ar  116  PHE116     -0.0000
     12  N          7.3980   13.6120   61.5900 N.am  117  ASP117     -0.1960
     13  CA         8.1290   13.1490   62.7810 C.3   117  ASP117      0.1840
     14  C          9.4320   12.3010   62.4830 C.2   117  ASP117      0.2622
     15  O          9.4810   11.5680   61.5430 O.2   117  ASP117     -0.2715
     16  CB         7.2080   12.1720   63.5720 C.3   117  ASP117      0.1450
     17  CG         7.6640   11.9830   65.0430 C.2   117  ASP117      0.3671
     18  OD1        8.8590   12.1080   65.3890 O.co2 117  ASP117     -0.2456
     19  OD2        6.8210   11.7610   65.9150 O.co2 117  ASP117     -0.2456
     20  N         10.3690   12.2340   63.3940 N.am  118  TRP118     -0.1974
     21  CA        11.2490   11.0940   63.3280 C.3   118  TRP118      0.1640
     22  C         10.4720    9.8440   63.4240 C.2   118  TRP118      0.2290
     23  O          9.4140    9.8180   63.9580 O.2   118  TRP118     -0.2864
     24  CB        12.3560   11.1320   64.3640 C.3   118  TRP118      0.0576
     25  CG        13.3290   12.0810   63.9790 C.ar  118  TRP118      0.0006
     26  CD1       14.0180   12.0880   62.8500 C.ar  118  TRP118      0.0946
     27  CD2       13.6850   13.2360   64.6780 C.ar  118  TRP118      0.0152
     28  NE1       14.8250   13.1680   62.7930 N.ar  118  TRP118     -0.2442
     29  CE2       14.6330   13.8960   63.9210 C.ar  118  TRP118      0.0810
     30  CE3       13.3040   13.7720   65.8880 C.ar  118  TRP118      0.0012
     31  CZ2       15.2040   15.0520   64.3240 C.ar  118  TRP118      0.0191
     32  CZ3       13.8710   14.9110   66.2840 C.ar  118  TRP118      0.0001
     33  CH2       14.8130   15.5460   65.5120 C.ar  118  TRP118      0.0015
     34  N         19.6090   13.4740   69.0290 N.3   127  LYS127     -0.1301
     35  CA        19.5390   14.8410   68.8770 C.3   127  LYS127      0.1247
     36  C         19.6010   15.6670   70.2020 C.3   127  LYS127      0.2009
     37  O         20.0060   16.9040   70.2660 O.3   127  LYS127     -0.2188
     38  CB        18.2560   15.1530   68.3270 C.3   127  LYS127      0.0218
     39  CG        17.7550   16.5650   68.6160 C.3   127  LYS127      0.0031
     40  CD        17.4480   17.2050   67.2700 C.3   127  LYS127      0.0205
     41  CE        18.1020   18.6560   67.2490 C.3   127  LYS127      0.1093
     42  NZ        18.3410   19.4640   65.9260 N.3   127  LYS127     -0.1314
     43  N         22.9290   16.3830   70.1210 N.3   130  GLU130     -0.1231
     44  CA        23.4850   17.4130   69.2200 C.3   130  GLU130      0.1699
     45  C         23.3020   18.7570   69.8270 C.2   130  GLU130      0.2588
     46  O         23.8750   19.6960   69.4050 O.2   130  GLU130     -0.2718
     47  CB        22.9420   17.3400   67.8680 C.3   130  GLU130      0.0402
     48  CG        23.9410   17.9470   67.0720 C.3   130  GLU130      0.1161
     49  CD        23.4520   19.2640   66.6570 C.2   130  GLU130      0.3649
     50  OE1       22.1560   19.3530   66.4760 O.co2 130  GLU130     -0.2457
     51  OE2       24.3990   20.1560   66.4910 O.co2 130  GLU130     -0.2457
     52  N         22.3850   18.8350   70.7890 N.am  131  GLU131     -0.2033
     53  CA        21.7900   20.1220   71.1470 C.3   131  GLU131      0.1288
     54  C         22.4220   20.4900   72.4130 C.3   131  GLU131      0.2036
     55  O         22.7410   21.6920   72.7550 O.3   131  GLU131     -0.2185
     56  CB        20.2730   20.1210   71.2510 C.3   131  GLU131      0.0362
     57  CG        19.8720   19.9530   69.8990 C.3   131  GLU131      0.1159
     58  CD        19.6900   21.2050   69.2940 C.2   131  GLU131      0.3649
     59  OE1       19.8180   22.1810   70.0440 O.co2 131  GLU131     -0.2457
     60  OE2       19.3200   21.1190   68.0640 O.co2 131  GLU131     -0.2457
     61  N         25.3980   22.0390   71.0220 N.3   134  GLU134     -0.1245
     62  CA        25.2950   23.4810   70.6760 C.3   134  GLU134      0.1567
     63  C         25.1190   24.4190   71.8920 C.2   134  GLU134      0.2260
     64  O         25.4720   25.5960   71.8550 O.2   134  GLU134     -0.2867
     65  CB        24.2120   23.7210   69.6210 C.3   134  GLU134      0.0388
     66  CG        23.8750   22.4150   68.7360 C.3   134  GLU134      0.1160
     67  CD        22.8310   22.6620   67.6940 C.2   134  GLU134      0.3649
     68  OE1       22.0340   21.7690   67.3420 O.co2 134  GLU134     -0.2457
     69  OE2       22.7600   23.8300   67.1990 O.co2 134  GLU134     -0.2457
     70  N         21.8740   33.5620   71.8220 N.3   148  LYS148     -0.1245
     71  CA        22.2330   32.2030   71.3670 C.3   148  LYS148      0.1561
     72  C         22.3610   31.1180   72.4450 C.2   148  LYS148      0.2260
     73  O         22.0150   29.9550   72.1560 O.2   148  LYS148     -0.2867
     74  CB        23.4090   32.1560   70.3700 C.3   148  LYS148      0.0271
     75  CG        23.2320   31.0550   69.3010 C.3   148  LYS148      0.0035
     76  CD        23.6420   31.4620   67.8150 C.3   148  LYS148      0.0206
     77  CE        22.3690   31.7400   66.8270 C.3   148  LYS148      0.1093
     78  NZ        21.6120   30.5580   66.0460 N.3   148  LYS148     -0.1314
     79  N         18.7980   30.6460   73.2690 N.3   151  GLU151     -0.1231
     80  CA        18.2560   29.9610   72.1170 C.3   151  GLU151      0.1699
     81  C         18.5480   28.4550   72.2130 C.2   151  GLU151      0.2588
     82  O         17.6500   27.6020   72.3060 O.2   151  GLU151     -0.2718
     83  CB        18.7510   30.5110   70.7920 C.3   151  GLU151      0.0402
     84  CG        18.4060   29.5720   69.6690 C.3   151  GLU151      0.1161
     85  CD        18.6720   30.1440   68.2050 C.2   151  GLU151      0.3649
     86  OE1       19.2650   31.2600   67.9450 O.co2 151  GLU151     -0.2457
     87  OE2       18.2570   29.4460   67.2410 O.co2 151  GLU151     -0.2457
     88  N         19.8190   28.1290   72.2540 N.am  152  GLU152     -0.2033
     89  CA        20.2530   26.7350   72.3700 C.3   152  GLU152      0.1288
     90  C         19.6300   25.9500   73.5300 C.3   152  GLU152      0.2036
     91  O         19.1000   24.7840   73.2960 O.3   152  GLU152     -0.2185
     92  CB        21.7740   26.7100   72.3460 C.3   152  GLU152      0.0362
     93  CG        22.2340   27.3350   71.0980 C.3   152  GLU152      0.1159
     94  CD        21.4050   26.7640   69.9710 C.2   152  GLU152      0.3649
     95  OE1       20.9970   27.5940   69.1330 O.co2 152  GLU152     -0.2457
     96  OE2       21.0850   25.5310   69.9080 O.co2 152  GLU152     -0.2457
     97  N         16.4090   24.8780   72.2290 N.3   155  ASP155     -0.1239
     98  CA        16.3020   23.7970   71.2740 C.3   155  ASP155      0.1674
     99  C         16.4960   22.5310   72.0650 C.2   155  ASP155      0.2266
    100  O         15.7210   21.5210   71.9250 O.2   155  ASP155     -0.2867
    101  CB        17.2300   24.0040   70.0720 C.3   155  ASP155      0.1410
    102  CG        17.0110   25.4160   69.3850 C.2   155  ASP155      0.3668
    103  OD1       15.9900   26.1350   69.7590 O.co2 155  ASP155     -0.2456
    104  OD2       17.8920   25.8250   68.5260 O.co2 155  ASP155     -0.2456
    105  N         12.8820   21.7900   73.7310 N.3   158  PHE158     -0.1241
    106  CA        12.1310   21.1550   72.7140 C.3   158  PHE158      0.1605
    107  C         12.6920   19.7580   72.2360 C.2   158  PHE158      0.2264
    108  O         12.0060   18.8030   72.0380 O.2   158  PHE158     -0.2867
    109  CB        12.0800   21.9640   71.5500 C.3   158  PHE158      0.0534
    110  CG        10.9980   21.6630   70.5860 C.ar  158  PHE158     -0.0203
    111  CD1        9.9200   22.5140   70.6050 C.ar  158  PHE158     -0.0042
    112  CD2       11.0400   20.5870   69.7490 C.ar  158  PHE158     -0.0042
    113  CE1        8.9820   22.3620   69.7660 C.ar  158  PHE158     -0.0003
    114  CE2       10.0530   20.4070   68.9090 C.ar  158  PHE158     -0.0003
    115  CZ         9.0290   21.2960   68.8900 C.ar  158  PHE158     -0.0000
    116  N         10.9880   15.9320   72.7690 N.3   162  ASN162     -0.1296
    117  CA        10.4690   15.2820   71.7750 C.3   162  ASN162      0.1339
    118  C         10.7770   13.8080   72.0970 C.3   162  ASN162      0.2014
    119  O         10.1490   12.6670   71.5160 O.3   162  ASN162     -0.2188
    120  CB        11.3670   15.6010   70.6350 C.3   162  ASN162      0.1102
    121  CG        10.7250   15.1910   69.2890 C.2   162  ASN162      0.2623
    122  OD1       11.0870   15.7760   68.1360 O.2   162  ASN162     -0.2716
    123  ND2        9.7490   14.2070   69.4810 N.am  162  ASN162     -0.0877
@<TRIPOS>BOND
     1     7     9   ar
     2     7     6   ar
     3     9    11   ar
     4     5     6    1
     5     5     2    1
     6     6     8   ar
     7     1     2    1
     8    11    10   ar
     9     2     3    1
    10     8    10   ar
    11     3    12   am
    12     3     4    2
    13    15    14    2
    14    12    13    1
    15    14    13    1
    16    14    20   am
    17    13    16    1
    18    28    26   ar
    19    28    29   ar
    20    26    25   ar
    21    21    20    1
    22    21    22    1
    23    21    24    1
    24    22    23    2
    25    16    17    1
    26    29    31   ar
    27    29    27   ar
    28    25    24    1
    29    25    27   ar
    30    31    33   ar
    31    27    30   ar
    32    17    18   ar
    33    17    19   ar
    34    33    32   ar
    35    30    32   ar
    36    42    41    1
    37    78    77    1
    38    50    49   ar
    39    51    49   ar
    40    49    48    1
    41    77    76    1
    42    48    47    1
    43    69    67   ar
    44    87    85   ar
    45    41    40    1
    46    40    39    1
    47    68    67   ar
    48    67    66    1
    49    76    75    1
    50    47    44    1
    51    86    85   ar
    52    60    58   ar
    53   122   121    2
    54    85    84    1
    55    38    39    1
    56    38    35    1
    57   104   102   ar
    58    66    65    1
    59    35    34    1
    60    35    36    1
    61   115   114   ar
    62   115   113   ar
    63   114   112   ar
    64    95    94   ar
    65    44    45    1
    66    44    43    1
    67   121   123   am
    68   121   120    1
    69    58    57    1
    70    58    59   ar
    71    75    74    1
    72   102   103   ar
    73   102   101    1
    74    46    45    2
    75    65    62    1
    76    84    83    1
    77   112   110   ar
    78   113   111   ar
    79    45    52   am
    80    57    56    1
    81    96    94   ar
    82    94    93    1
    83   101    98    1
    84    36    37    1
    85    74    71    1
    86   110   111   ar
    87   110   109    1
    88   120   117    1
    89    62    61    1
    90    62    63    1
    91    52    53    1
    92    83    80    1
    93    93    92    1
    94    53    56    1
    95    53    54    1
    96    98    99    1
    97    98    97    1
    98    71    70    1
    99    71    72    1
   100   119   118    1
   101   109   106    1
   102   117   118    1
   103   117   116    1
   104    64    63    2
   105   100    99    2
   106   108   107    2
   107    80    81    1
   108    80    79    1
   109    73    72    2
   110    81    88   am
   111    81    82    2
   112   107   106    1
   113    88    89    1
   114    92    89    1
   115    89    90    1
   116    54    55    1
   117   106   105    1
   118    91    90    1
