@<TRIPOS>MOLECULE
tmp/3crlB00.pdb
 170 161 0 0 0
SMALL
GASTEIGER

@<TRIPOS>ATOM
      1  N         80.2960  116.1040   25.9350 N.3   240  GLU240     -0.1245
      2  CA        80.5810  114.8790   26.6730 C.3   240  GLU240      0.1567
      3  C         79.3260  114.0370   26.9200 C.2   240  GLU240      0.2260
      4  O         79.2780  112.8750   26.5130 O.2   240  GLU240     -0.2867
      5  CB        81.3210  115.1920   27.9820 C.3   240  GLU240      0.0388
      6  CG        82.7910  115.6060   27.7780 C.3   240  GLU240      0.1160
      7  CD        83.5960  114.5490   27.0200 C.2   240  GLU240      0.3649
      8  OE1       83.7090  113.4010   27.5150 O.co2 240  GLU240     -0.2457
      9  OE2       84.1080  114.8620   25.9250 O.co2 240  GLU240     -0.2457
     10  N         77.8490  112.4220   23.7860 N.3   243  LYS243     -0.1231
     11  CA        78.6110  111.2610   23.3540 C.3   243  LYS243      0.1693
     12  C         78.2570  109.9910   24.1360 C.2   243  LYS243      0.2592
     13  O         78.1180  108.9140   23.5470 O.2   243  LYS243     -0.2718
     14  CB        80.1100  111.5420   23.4480 C.3   243  LYS243      0.0285
     15  CG        80.6690  112.4230   22.3240 C.3   243  LYS243      0.0035
     16  CD        82.1840  112.3390   22.2470 C.3   243  LYS243      0.0206
     17  CE        82.8460  113.1380   23.3480 C.3   243  LYS243      0.1093
     18  NZ        84.1150  112.4900   23.7910 N.3   243  LYS243     -0.1314
     19  N         78.1200  110.1280   25.4570 N.am  244  ASN244     -0.1960
     20  CA        77.7260  109.0300   26.3460 C.3   244  ASN244      0.1819
     21  C         76.3570  108.4650   26.0180 C.2   244  ASN244      0.2621
     22  O         76.1470  107.2480   26.0650 O.2   244  ASN244     -0.2715
     23  CB        77.6990  109.5000   27.7970 C.3   244  ASN244      0.1195
     24  CG        79.0720  109.6910   28.3720 C.2   244  ASN244      0.2630
     25  OD1       80.0290  109.0960   27.8970 O.2   244  ASN244     -0.2716
     26  ND2       79.1800  110.5180   29.4160 N.am  244  ASN244     -0.0877
     27  N         75.4290  109.3670   25.7080 N.am  245  ALA245     -0.1977
     28  CA        74.0570  109.0030   25.3940 C.3   245  ALA245      0.1597
     29  C         73.9770  108.3700   24.0180 C.2   245  ALA245      0.2287
     30  O         73.1910  107.4450   23.8000 O.2   245  ALA245     -0.2864
     31  CB        73.1680  110.2170   25.4640 C.3   245  ALA245      0.0319
     32  N         76.4950  106.7150   22.3850 N.3   247  ARG247     -0.1231
     33  CA        77.0820  105.3850   22.4810 C.3   247  ARG247      0.1694
     34  C         76.0640  104.4030   23.0380 C.2   247  ARG247      0.2591
     35  O         75.8180  103.3520   22.4450 O.2   247  ARG247     -0.2718
     36  CB        78.3340  105.3930   23.3570 C.3   247  ARG247      0.0321
     37  CG        78.8800  104.0000   23.6330 C.3   247  ARG247      0.0489
     38  CD        80.3540  104.0390   23.9290 C.3   247  ARG247      0.2205
     39  NE        80.6540  103.9540   25.3550 N.pl3 247  ARG247     -0.0865
     40  CZ        81.0420  102.8400   25.9760 C.cat 247  ARG247      0.5346
     41  NH1       81.1660  101.7030   25.3040 N.pl3 247  ARG247      0.1354
     42  NH2       81.3030  102.8620   27.2790 N.pl3 247  ARG247      0.1354
     43  N         75.4670  104.7800   24.1680 N.am  248  ALA248     -0.1980
     44  CA        74.4910  103.9620   24.8740 C.3   248  ALA248      0.1597
     45  C         73.2860  103.6000   24.0130 C.2   248  ALA248      0.2287
     46  O         72.8560  102.4510   24.0170 O.2   248  ALA248     -0.2864
     47  CB        74.0390  104.6710   26.1420 C.3   248  ALA248      0.0319
     48  N         69.2010  116.0470   29.7710 N.3   277  MET277     -0.1245
     49  CA        69.4160  115.2290   28.5980 C.3   277  MET277      0.1570
     50  C         68.8800  113.8410   28.8710 C.2   277  MET277      0.2261
     51  O         69.3540  113.1400   29.7620 O.2   277  MET277     -0.2867
     52  CB        70.9020  115.1510   28.2570 C.3   277  MET277      0.0387
     53  CG        71.1840  114.5590   26.9020 C.3   277  MET277      0.0595
     54  SD        72.9230  114.6380   26.4800 S.3   277  MET277     -0.1393
     55  CE        73.4120  113.1440   27.3140 C.3   277  MET277      0.0692
     56  N         67.9210  109.9840   27.4640 N.3   279  ASP279     -0.1239
     57  CA        68.1620  108.9800   26.4400 C.3   279  ASP279      0.1674
     58  C         67.4890  107.6530   26.7900 C.2   279  ASP279      0.2266
     59  O         67.3150  107.3190   27.9660 O.2   279  ASP279     -0.2867
     60  CB        69.6690  108.8100   26.1930 C.3   279  ASP279      0.1410
     61  CG        70.3580  108.0100   27.2820 C.2   279  ASP279      0.3668
     62  OD1       70.1130  106.7800   27.3770 O.co2 279  ASP279     -0.2456
     63  OD2       71.1660  108.6100   28.0290 O.co2 279  ASP279     -0.2456
     64  N         68.7390  104.5920   26.2480 N.3   281  GLY281     -0.1225
     65  CA        69.8700  103.7360   25.9200 C.3   281  GLY281      0.1811
     66  C         70.1420  102.5900   26.8820 C.2   281  GLY281      0.2280
     67  O         71.2850  102.1420   27.0070 O.2   281  GLY281     -0.2866
     68  N         70.0300  102.2960   30.1770 N.3   283  GLY283     -0.1210
     69  CA        70.2930  102.6430   31.5740 C.3   283  GLY283      0.1956
     70  C         71.4660  101.9440   32.2360 C.2   283  GLY283      0.2611
     71  O         72.1270  101.0920   31.6440 O.2   283  GLY283     -0.2717
     72  N         71.7260  102.3330   33.4790 N.am  284  VAL284     -0.1979
     73  CA        72.7930  101.7560   34.2990 C.3   284  VAL284      0.1595
     74  C         72.2110  101.3730   35.6770 C.2   284  VAL284      0.2287
     75  O         71.4500  102.1420   36.2590 O.2   284  VAL284     -0.2864
     76  CB        73.9530  102.7720   34.4770 C.3   284  VAL284      0.0276
     77  CG1       75.1110  102.1590   35.2430 C.3   284  VAL284      0.0022
     78  CG2       74.4490  103.2690   33.1270 C.3   284  VAL284      0.0022
     79  N         80.7210  105.6820   38.1470 N.3   292  LEU292     -0.1245
     80  CA        80.8870  106.4230   36.8930 C.3   292  LEU292      0.1561
     81  C         81.6010  107.7540   37.0690 C.2   292  LEU292      0.2260
     82  O         82.1620  108.2800   36.1130 O.2   292  LEU292     -0.2867
     83  CB        79.5370  106.6490   36.1930 C.3   292  LEU292      0.0270
     84  CG        78.6390  105.4580   35.8390 C.3   292  LEU292      0.0019
     85  CD1       77.4540  105.9000   34.9800 C.3   292  LEU292      0.0001
     86  CD2       79.4190  104.3320   35.1580 C.3   292  LEU292      0.0001
     87  N         87.0070  104.1690   36.0070 N.3   298  SER298     -0.1217
     88  CA        86.9600  104.2500   34.5380 C.3   298  SER298      0.1889
     89  C         88.3390  104.4610   33.8830 C.2   298  SER298      0.2288
     90  O         88.5840  105.4870   33.2350 O.2   298  SER298     -0.2866
     91  CB        85.9210  105.2800   34.0620 C.3   298  SER298      0.2089
     92  OG        85.8560  106.4070   34.9230 O.3   298  SER298     -0.2183
     93  N         83.8290  107.0920   19.9700 N.3   302  LEU302     -0.1231
     94  CA        83.2950  108.1470   20.8340 C.3   302  LEU302      0.1693
     95  C         83.8440  108.0290   22.2470 C.2   302  LEU302      0.2592
     96  O         84.2690  109.0280   22.8480 O.2   302  LEU302     -0.2718
     97  CB        81.7670  108.0870   20.8860 C.3   302  LEU302      0.0284
     98  CG        80.9390  108.6330   19.7250 C.3   302  LEU302      0.0019
     99  CD1       81.0330  107.7050   18.5310 C.3   302  LEU302      0.0001
    100  CD2       79.4870  108.7820   20.1580 C.3   302  LEU302      0.0001
    101  N         83.8030  106.8070   22.7770 N.am  303  ALA303     -0.1966
    102  CA        84.3300  106.5190   24.1020 C.3   303  ALA303      0.1728
    103  C         85.8490  106.4310   24.0340 C.2   303  ALA303      0.2617
    104  O         86.4100  105.4500   23.5390 O.2   303  ALA303     -0.2715
    105  CB        83.7320  105.2310   24.6580 C.3   303  ALA303      0.0334
    106  N         86.5060  107.4770   24.5220 N.am  304  GLY304     -0.1940
    107  CA        87.9540  107.5140   24.5840 C.3   304  GLY304      0.2014
    108  C         88.4250  106.8680   25.8700 C.2   304  GLY304      0.2639
    109  O         88.5070  105.6410   25.9660 O.2   304  GLY304     -0.2714
    110  N         88.7160  107.7030   26.8650 N.am  305  PHE305     -0.1959
    111  CA        89.3080  107.2510   28.1200 C.3   305  PHE305      0.1771
    112  C         88.2210  106.8890   29.1310 C.2   305  PHE305      0.2620
    113  O         87.5300  105.8800   28.9710 O.2   305  PHE305     -0.2715
    114  CB        90.2390  108.3320   28.6760 C.3   305  PHE305      0.0574
    115  CG        91.3300  107.8000   29.5580 C.ar  305  PHE305     -0.0200
    116  CD1       91.2040  107.8370   30.9410 C.ar  305  PHE305     -0.0042
    117  CD2       92.4920  107.2740   29.0050 C.ar  305  PHE305     -0.0042
    118  CE1       92.2160  107.3550   31.7640 C.ar  305  PHE305     -0.0003
    119  CE2       93.5130  106.7850   29.8190 C.ar  305  PHE305     -0.0003
    120  CZ        93.3740  106.8260   31.2020 C.ar  305  PHE305     -0.0000
    121  N         88.0710  107.7210   30.1610 N.am  306  GLY306     -0.1940
    122  CA        87.0410  107.5360   31.1730 C.3   306  GLY306      0.2014
    123  C         87.0220  108.6780   32.1640 C.2   306  GLY306      0.2639
    124  O         86.8070  108.4620   33.3530 O.2   306  GLY306     -0.2714
    125  N         87.2520  109.8930   31.6690 N.am  307  TYR307     -0.1959
    126  CA        87.3210  111.0900   32.5110 C.3   307  TYR307      0.1771
    127  C         86.3030  112.1560   32.0930 C.2   307  TYR307      0.2620
    128  O         86.2060  113.2230   32.7150 O.2   307  TYR307     -0.2715
    129  CB        88.7430  111.6610   32.5020 C.3   307  TYR307      0.0574
    130  CG        89.6940  111.0040   33.4920 C.ar  307  TYR307     -0.0198
    131  CD1       89.7420  109.6130   33.6340 C.ar  307  TYR307     -0.0009
    132  CD2       90.5600  111.7720   34.2720 C.ar  307  TYR307     -0.0009
    133  CE1       90.6100  109.0050   34.5330 C.ar  307  TYR307      0.0417
    134  CE2       91.4430  111.1710   35.1720 C.ar  307  TYR307      0.0417
    135  CZ        91.4620  109.7860   35.2970 C.ar  307  TYR307      0.1957
    136  OH        92.3240  109.1730   36.1830 O.3   307  TYR307     -0.2866
    137  N         85.5350  111.8530   31.0490 N.am  308  GLY308     -0.1940
    138  CA        84.5250  112.7700   30.5430 C.3   308  GLY308      0.2014
    139  C         83.4990  113.1370   31.5930 C.2   308  GLY308      0.2639
    140  O         83.1490  114.3080   31.7380 O.2   308  GLY308     -0.2714
    141  N         83.0100  112.1420   32.3300 N.am  309  LEU309     -0.1963
    142  CA        81.9870  112.3970   33.3460 C.3   309  LEU309      0.1713
    143  C         82.4950  113.1820   34.5650 C.2   309  LEU309      0.2458
    144  O         81.9250  114.2300   34.8830 O.2   309  LEU309     -0.2730
    145  CB        81.2640  111.1130   33.7640 C.3   309  LEU309      0.0310
    146  CG        80.0210  110.7880   32.9420 C.3   309  LEU309      0.0022
    147  CD1       79.5250  109.3790   33.2430 C.3   309  LEU309      0.0001
    148  CD2       78.9210  111.8200   33.2010 C.3   309  LEU309      0.0001
    149  N         83.5710  112.6990   35.2370 N.am  310  PRO310     -0.2727
    150  CA        84.0350  113.4270   36.4220 C.3   310  PRO310      0.1402
    151  C         84.3970  114.8840   36.1190 C.2   310  PRO310      0.2269
    152  O         84.0690  115.7730   36.9080 O.2   310  PRO310     -0.2865
    153  CB        85.2760  112.6470   36.8540 C.3   310  PRO310      0.0296
    154  CG        85.1160  111.3160   36.2720 C.3   310  PRO310      0.0237
    155  CD        84.4050  111.5120   34.9790 C.3   310  PRO310      0.0939
    156  N         73.2950  112.4500   37.4950 N.3   325  LEU325     -0.1245
    157  CA        72.7920  111.3840   36.6390 C.3   325  LEU325      0.1561
    158  C         71.7730  110.5530   37.3900 C.2   325  LEU325      0.2260
    159  O         71.8910  110.3610   38.5970 O.2   325  LEU325     -0.2867
    160  CB        73.9300  110.4770   36.2020 C.3   325  LEU325      0.0270
    161  CG        74.7760  110.9110   35.0250 C.3   325  LEU325      0.0019
    162  CD1       76.1360  110.2750   35.1770 C.3   325  LEU325      0.0001
    163  CD2       74.1190  110.4310   33.7560 C.3   325  LEU325      0.0001
    164  N         68.5580  106.7370   30.5840 N.3   333  THR333     -0.1218
    165  CA        69.2080  107.5860   31.5780 C.3   333  THR333      0.1862
    166  C         68.8840  109.0610   31.3870 C.2   333  THR333      0.2287
    167  O         68.7100  109.5350   30.2610 O.2   333  THR333     -0.2866
    168  CB        70.7430  107.3680   31.5590 C.3   333  THR333      0.1770
    169  OG1       71.0200  105.9800   31.7840 O.3   333  THR333     -0.2211
    170  CG2       71.4460  108.1820   32.6380 C.3   333  THR333      0.0375
@<TRIPOS>BOND
     1    99    98    1
     2    98   100    1
     3    98    97    1
     4    93    94    1
     5    94    97    1
     6    94    95    1
     7    16    15    1
     8    16    17    1
     9    95   101   am
    10    95    96    2
    11    15    14    1
    12    32    33    1
    13    35    34    2
    14    33    34    1
    15    33    36    1
    16   101   102    1
    17    34    43   am
    18    17    18    1
    19    11    14    1
    20    11    10    1
    21    11    12    1
    22    36    37    1
    23   104   103    2
    24    13    12    2
    25    37    38    1
    26    30    29    2
    27    38    39    1
    28    45    46    2
    29    45    44    1
    30    29    28    1
    31   103   102    1
    32   103   106   am
    33   102   105    1
    34    12    19   am
    35    43    44    1
    36   106   107    1
    37   107   108    1
    38    44    47    1
    39    41    40    1
    40    39    40    2
    41    28    31    1
    42    28    27    1
    43    19    20    1
    44    27    21   am
    45   108   109    2
    46   108   110   am
    47    65    64    1
    48    65    66    1
    49     9     7   ar
    50     1     2    1
    51    40    42    1
    52    21    22    2
    53    21    20    1
    54    60    57    1
    55    60    61    1
    56    20    23    1
    57    57    58    1
    58    57    56    1
    59    54    53    1
    60    54    55    1
    61     4     3    2
    62     2     3    1
    63     2     5    1
    64    58    59    2
    65   110   111    1
    66    66    67    2
    67    53    52    1
    68     7     8   ar
    69     7     6    1
    70    61    62   ar
    71    61    63   ar
    72     6     5    1
    73    23    24    1
    74    25    24    2
    75   111   114    1
    76   111   112    1
    77    52    49    1
    78    24    26   am
    79    49    50    1
    80    49    48    1
    81   114   115    1
    82    50    51    2
    83   113   112    2
    84   117   115   ar
    85   117   119   ar
    86   112   121   am
    87   115   116   ar
    88   119   120   ar
    89   121   122    1
    90    68    69    1
    91   167   166    2
    92   138   137    1
    93   138   139    1
    94   164   165    1
    95   116   118   ar
    96   137   127   am
    97   122   123    1
    98   120   118   ar
    99   166   165    1
   100   168   165    1
   101   168   169    1
   102   168   170    1
   103    69    70    1
   104   139   140    2
   105   139   141   am
   106    71    70    2
   107   125   123   am
   108   125   126    1
   109   127   126    1
   110   127   128    2
   111   123   124    2
   112    70    72   am
   113   141   142    1
   114   129   126    1
   115   129   130    1
   116   146   148    1
   117   146   147    1
   118   146   145    1
   119    78    76    1
   120    90    89    2
   121   142   145    1
   122   142   143    1
   123    72    73    1
   124   130   131   ar
   125   130   132   ar
   126   131   133   ar
   127   163   161    1
   128    89    88    1
   129    91    88    1
   130    91    92    1
   131   132   134   ar
   132    73    76    1
   133    73    74    1
   134    76    77    1
   135   133   135   ar
   136    88    87    1
   137   143   144    2
   138   143   149   am
   139   155   149    1
   140   155   154    1
   141    85    84    1
   142   161   162    1
   143   161   160    1
   144    86    84    1
   145   134   135   ar
   146   149   150    1
   147   135   136    1
   148    74    75    2
   149    84    83    1
   150    82    81    2
   151   151   150    1
   152   151   152    2
   153    83    80    1
   154   160   157    1
   155   154   153    1
   156   150   153    1
   157   157   158    1
   158   157   156    1
   159    80    81    1
   160    80    79    1
   161   158   159    2
