@<TRIPOS>MOLECULE
tmp/3crqA00.pdb
 101 94 0 0 0
SMALL
GASTEIGER

@<TRIPOS>ATOM
      1  N         56.5090   16.8740   26.3240 N.3    12  THR12      -0.1203
      2  CA        56.2070   17.0690   24.9180 C.3    12  THR12       0.1994
      3  C         54.6900   17.0280   24.6950 C.2    12  THR12       0.2618
      4  O         53.9870   16.2250   25.3100 O.2    12  THR12      -0.2717
      5  CB        56.9100   15.9820   24.0730 C.3    12  THR12       0.1784
      6  OG1       56.5590   16.1370   22.6920 O.3    12  THR12      -0.2211
      7  CG2       56.5270   14.5800   24.5750 C.3    12  THR12       0.0376
      8  N         54.1940   17.9210   23.8430 N.am   13  ALA13      -0.1965
      9  CA        52.7680   17.9910   23.5010 C.3    13  ALA13       0.1728
     10  C         51.8920   18.6650   24.5470 C.2    13  ALA13       0.2616
     11  O         50.6800   18.7590   24.3770 O.2    13  ALA13      -0.2715
     12  CB        52.2290   16.5920   23.2040 C.3    13  ALA13       0.0334
     13  N         52.5040   19.1390   25.6220 N.am   14  ALA14      -0.1963
     14  CA        51.7680   19.7990   26.6890 C.3    14  ALA14       0.1728
     15  C         51.1190   21.1030   26.2180 C.2    14  ALA14       0.2617
     16  O         50.0390   21.4690   26.6850 O.2    14  ALA14      -0.2715
     17  CB        52.6960   20.0770   27.8560 C.3    14  ALA14       0.0334
     18  N         51.7800   21.7980   25.2970 N.am   15  GLY15      -0.1940
     19  CA        51.2490   23.0550   24.7910 C.3    15  GLY15       0.2014
     20  C         52.1480   24.2350   25.1270 C.2    15  GLY15       0.2639
     21  O         51.6940   25.3770   25.1650 O.2    15  GLY15      -0.2714
     22  N         53.4300   23.9590   25.3610 N.am   16  LYS16      -0.1963
     23  CA        54.3960   24.9950   25.7080 C.3    16  LYS16       0.1728
     24  C         54.5430   26.0780   24.6390 C.2    16  LYS16       0.2617
     25  O         54.4680   27.2710   24.9410 O.2    16  LYS16      -0.2715
     26  CB        55.7670   24.3700   25.9830 C.3    16  LYS16       0.0311
     27  CG        55.8020   23.3930   27.1520 C.3    16  LYS16       0.0038
     28  CD        57.2050   22.8370   27.3830 C.3    16  LYS16       0.0206
     29  CE        57.6880   22.0080   26.1990 C.3    16  LYS16       0.1093
     30  NZ        56.7280   20.9220   25.8640 N.3    16  LYS16      -0.1314
     31  N         54.7620   25.6620   23.3960 N.am   17  THR17      -0.1937
     32  CA        54.9350   26.6110   22.2980 C.3    17  THR17       0.2028
     33  C         53.6980   27.4960   22.1620 C.2    17  THR17       0.2642
     34  O         53.8010   28.7050   21.9380 O.2    17  THR17      -0.2714
     35  CB        55.1970   25.8690   20.9560 C.3    17  THR17       0.1808
     36  OG1       56.3890   25.0840   21.0750 O.3    17  THR17      -0.2208
     37  CG2       55.3760   26.8640   19.8020 C.3    17  THR17       0.0379
     38  N         52.5300   26.8820   22.3120 N.am   18  ASP18      -0.1971
     39  CA        51.2620   27.5910   22.2090 C.3    18  ASP18       0.1709
     40  C         51.2000   28.7550   23.1940 C.2    18  ASP18       0.2293
     41  O         50.9700   29.8980   22.7970 O.2    18  ASP18      -0.2864
     42  CB        50.1140   26.6210   22.4830 C.3    18  ASP18       0.1436
     43  CG        48.7590   27.2040   22.1370 C.2    18  ASP18       0.3671
     44  OD1       47.7400   26.5610   22.4760 O.co2  18  ASP18      -0.2456
     45  OD2       48.7130   28.2940   21.5210 O.co2  18  ASP18      -0.2456
     46  N         65.3800   23.1520   23.1030 N.3    35  ASP35      -0.1239
     47  CA        65.0210   21.8490   22.5470 C.3    35  ASP35       0.1674
     48  C         66.1830   21.3300   21.7050 C.2    35  ASP35       0.2266
     49  O         66.6040   21.9820   20.7420 O.2    35  ASP35      -0.2867
     50  CB        63.7790   21.9920   21.6630 C.3    35  ASP35       0.1410
     51  CG        63.2190   20.6480   21.1960 C.2    35  ASP35       0.3668
     52  OD1       62.0770   20.3270   21.5750 O.co2  35  ASP35      -0.2456
     53  OD2       63.9110   19.9150   20.4550 O.co2  35  ASP35      -0.2456
     54  N         64.8750   20.7870   17.8060 N.3    38  LEU38      -0.1245
     55  CA        64.5110   21.9620   17.0140 C.3    38  LEU38       0.1561
     56  C         65.7080   22.7420   16.4710 C.2    38  LEU38       0.2260
     57  O         65.5560   23.6010   15.6030 O.2    38  LEU38      -0.2867
     58  CB        63.6100   22.8960   17.8330 C.3    38  LEU38       0.0270
     59  CG        62.2280   22.3100   18.1400 C.3    38  LEU38       0.0019
     60  CD1       61.4090   23.3080   18.9720 C.3    38  LEU38       0.0001
     61  CD2       61.5170   21.9810   16.8310 C.3    38  LEU38       0.0001
     62  N         59.5410   17.0540   14.4650 N.3    47  THR47      -0.1203
     63  CA        59.8740   17.7010   15.7240 C.3    47  THR47       0.1994
     64  C         58.7980   18.6790   16.2100 C.2    47  THR47       0.2617
     65  O         58.9630   19.3220   17.2490 O.2    47  THR47      -0.2717
     66  CB        61.1970   18.4670   15.5830 C.3    47  THR47       0.1784
     67  OG1       61.0580   19.4470   14.5470 O.3    47  THR47      -0.2211
     68  CG2       62.3480   17.5080   15.2260 C.3    47  THR47       0.0376
     69  N         57.7110   18.8050   15.4500 N.am   48  ALA48      -0.1979
     70  CA        56.6260   19.7120   15.8110 C.3    48  ALA48       0.1597
     71  C         57.1170   21.1580   15.8310 C.2    48  ALA48       0.2287
     72  O         56.6350   21.9840   16.6090 O.2    48  ALA48      -0.2864
     73  CB        56.0580   19.3350   17.1830 C.3    48  ALA48       0.0319
     74  N         60.8230   25.1430   26.0870 N.3    99  GLY99      -0.1210
     75  CA        61.2220   23.8720   25.5120 C.3    99  GLY99       0.1956
     76  C         61.1120   22.7500   26.5180 C.2    99  GLY99       0.2612
     77  O         60.8190   22.9920   27.6870 O.2    99  GLY99      -0.2717
     78  N         61.3610   21.5220   26.0700 N.am  100  GLY100     -0.1956
     79  CA        61.2620   20.3850   26.9670 C.3   100  GLY100      0.1869
     80  C         62.5450   19.6290   27.2520 C.2   100  GLY100      0.2309
     81  O         62.4910   18.5680   27.8690 O.2   100  GLY100     -0.2863
     82  N         48.9980   13.3470   17.4790 N.3   136  ARG136     -0.1245
     83  CA        49.9570   14.2680   16.8580 C.3   136  ARG136      0.1563
     84  C         50.9470   13.4970   15.9860 C.2   136  ARG136      0.2260
     85  O         51.2960   13.9340   14.8870 O.2   136  ARG136     -0.2867
     86  CB        50.7300   15.0500   17.9230 C.3   136  ARG136      0.0307
     87  CG        51.6520   16.1270   17.3600 C.3   136  ARG136      0.0489
     88  CD        52.4470   16.8210   18.4610 C.3   136  ARG136      0.2205
     89  NE        53.4180   15.9210   19.0820 N.pl3 136  ARG136     -0.0865
     90  CZ        54.3100   16.2930   19.9980 C.cat 136  ARG136      0.5346
     91  NH1       54.3560   17.5530   20.4110 N.pl3 136  ARG136      0.1354
     92  NH2       55.1690   15.4070   20.4890 N.pl3 136  ARG136      0.1354
     93  N         60.6030   13.2650   31.0350 N.3   201  GLN201     -0.1245
     94  CA        60.4580   14.6880   31.3120 C.3   201  GLN201      0.1566
     95  C         59.7180   14.8950   32.6420 C.2   201  GLN201      0.2260
     96  O         60.1010   15.7460   33.4450 O.2   201  GLN201     -0.2867
     97  CB        59.7190   15.3740   30.1510 C.3   201  GLN201      0.0367
     98  CG        60.4910   15.3100   28.8280 C.3   201  GLN201      0.0905
     99  CD        59.7050   15.8420   27.6460 C.2   201  GLN201      0.2608
    100  OE1       58.6370   15.3300   27.3060 O.2   201  GLN201     -0.2717
    101  NE2       60.2400   16.8690   27.0040 N.am  201  GLN201     -0.0878
@<TRIPOS>BOND
     1    62    63    1
     2    67    66    1
     3    85    84    2
     4    68    66    1
     5    69    70    1
     6    69    64   am
     7    66    63    1
     8    57    56    2
     9    63    64    1
    10    70    71    1
    11    70    73    1
    12    71    72    2
    13    84    83    1
    14    64    65    2
    15    56    55    1
    16    61    59    1
    17    83    82    1
    18    83    86    1
    19    55    54    1
    20    55    58    1
    21    87    86    1
    22    87    88    1
    23    58    59    1
    24    59    60    1
    25    88    89    1
    26    89    90    2
    27    37    35    1
    28    90    91    1
    29    90    92    1
    30    53    51   ar
    31    49    48    2
    32    35    36    1
    33    35    32    1
    34    51    52   ar
    35    51    50    1
    36    45    43   ar
    37    50    47    1
    38    48    47    1
    39    34    33    2
    40    43    44   ar
    41    43    42    1
    42    33    32    1
    43    33    38   am
    44    39    38    1
    45    39    42    1
    46    39    40    1
    47    32    31    1
    48    47    46    1
    49     6     5    1
    50    41    40    2
    51    12     9    1
    52    31    24   am
    53     9     8    1
    54     9    10    1
    55     8     3   am
    56     5     7    1
    57     5     2    1
    58    11    10    2
    59    10    13   am
    60    24    25    2
    61    24    23    1
    62     3     2    1
    63     3     4    2
    64    19    20    1
    65    19    18    1
    66     2     1    1
    67    20    21    2
    68    20    22   am
    69    18    15   am
    70    22    23    1
    71    75    74    1
    72    75    76    1
    73    13    14    1
    74    23    26    1
    75    30    29    1
    76    26    27    1
    77    78    76   am
    78    78    79    1
    79    29    28    1
    80    15    16    2
    81    15    14    1
    82    76    77    2
    83    14    17    1
    84    79    80    1
    85   101    99   am
    86    27    28    1
    87    80    81    2
    88   100    99    2
    89    99    98    1
    90    98    97    1
    91    97    94    1
    92    93    94    1
    93    94    95    1
    94    95    96    2
