@<TRIPOS>MOLECULE
tmp/3crrA01.pdb
 112 100 0 0 0
SMALL
GASTEIGER

@<TRIPOS>ATOM
      1  N         56.3540   16.8880   26.6720 N.3    12  THR12      -0.1218
      2  CA        56.0520   17.0690   25.2650 C.3    12  THR12       0.1862
      3  C         54.5380   16.9760   25.0270 C.2    12  THR12       0.2287
      4  O         53.8570   16.1270   25.6080 O.2    12  THR12      -0.2866
      5  CB        56.8250   16.0190   24.4190 C.3    12  THR12       0.1770
      6  OG1       56.4790   16.1570   23.0400 O.3    12  THR12      -0.2211
      7  CG2       56.5170   14.6080   24.9070 C.3    12  THR12       0.0375
      8  N         53.2700   23.9800   25.6080 N.3    16  LYS16      -0.1245
      9  CA        54.1990   25.0230   26.0470 C.3    16  LYS16       0.1561
     10  C         54.3440   26.1310   25.0110 C.2    16  LYS16       0.2260
     11  O         54.2330   27.3160   25.3320 O.2    16  LYS16      -0.2867
     12  CB        55.5860   24.4330   26.3330 C.3    16  LYS16       0.0271
     13  CG        55.6260   23.4230   27.4730 C.3    16  LYS16       0.0035
     14  CD        57.0420   22.9070   27.7070 C.3    16  LYS16       0.0206
     15  CE        57.5600   22.1040   26.5210 C.3    16  LYS16       0.1093
     16  NZ        56.7620   20.8650   26.3050 N.3    16  LYS16      -0.1314
     17  N         65.3490   23.0320   23.5340 N.3    35  ASP35      -0.1239
     18  CA        64.9780   21.7490   22.9600 C.3    35  ASP35       0.1674
     19  C         66.1330   21.2070   22.1170 C.2    35  ASP35       0.2266
     20  O         66.5370   21.8220   21.1300 O.2    35  ASP35      -0.2867
     21  CB        63.7410   21.9520   22.0830 C.3    35  ASP35       0.1410
     22  CG        63.0870   20.6520   21.6820 C.2    35  ASP35       0.3668
     23  OD1       61.9690   20.3870   22.1720 O.co2  35  ASP35      -0.2456
     24  OD2       63.6860   19.8990   20.8840 O.co2  35  ASP35      -0.2456
     25  N         66.1450   18.9620   20.0550 N.3    37  ALA37      -0.1231
     26  CA        65.7190   18.5230   18.7330 C.3    37  ALA37       0.1694
     27  C         65.4160   19.6930   17.7830 C.2    37  ALA37       0.2591
     28  O         65.7610   19.6410   16.6070 O.2    37  ALA37      -0.2718
     29  CB        64.4880   17.6050   18.8590 C.3    37  ALA37       0.0304
     30  N         64.7830   20.7450   18.2930 N.am   38  LEU38      -0.1980
     31  CA        64.4410   21.8940   17.4560 C.3    38  LEU38       0.1596
     32  C         65.6610   22.6540   16.9300 C.2    38  LEU38       0.2287
     33  O         65.5380   23.5070   16.0510 O.2    38  LEU38      -0.2864
     34  CB        63.5080   22.8470   18.2220 C.3    38  LEU38       0.0297
     35  CG        62.1480   22.2300   18.5850 C.3    38  LEU38       0.0022
     36  CD1       61.2840   23.2600   19.2920 C.3    38  LEU38       0.0001
     37  CD2       61.4490   21.7330   17.3290 C.3    38  LEU38       0.0001
     38  N         58.4490   16.0890   12.2530 N.3    46  GLY46      -0.1210
     39  CA        58.5780   15.1170   13.3270 C.3    46  GLY46       0.1956
     40  C         58.9490   15.6930   14.6860 C.2    46  GLY46       0.2613
     41  O         58.8520   14.9990   15.7020 O.2    46  GLY46      -0.2717
     42  N         59.3780   16.9510   14.7160 N.am   47  THR47      -0.1938
     43  CA        59.7670   17.5910   15.9710 C.3    47  THR47       0.2028
     44  C         58.6890   18.5320   16.5060 C.2    47  THR47       0.2642
     45  O         58.8560   19.1370   17.5640 O.2    47  THR47      -0.2714
     46  CB        61.0870   18.3930   15.8210 C.3    47  THR47       0.1808
     47  OG1       60.9360   19.3880   14.7970 O.3    47  THR47      -0.2208
     48  CG2       62.2570   17.4630   15.4540 C.3    47  THR47       0.0379
     49  N         57.5840   18.6560   15.7740 N.am   48  ALA48      -0.1977
     50  CA        56.4960   19.5470   16.1720 C.3    48  ALA48       0.1597
     51  C         56.9980   20.9860   16.2070 C.2    48  ALA48       0.2287
     52  O         56.5530   21.7980   17.0170 O.2    48  ALA48      -0.2864
     53  CB        55.9440   19.1390   17.5460 C.3    48  ALA48       0.0319
     54  N         61.2580   21.5150   26.6270 N.3   100  GLY100     -0.1225
     55  CA        61.2360   20.4150   27.5770 C.3   100  GLY100      0.1811
     56  C         62.5230   19.6330   27.7650 C.2   100  GLY100      0.2280
     57  O         62.4840   18.5370   28.3220 O.2   100  GLY100     -0.2866
     58  N         48.8630   13.3570   17.7700 N.3   136  ARG136     -0.1245
     59  CA        49.8360   14.2680   17.1690 C.3   136  ARG136      0.1563
     60  C         50.8420   13.4960   16.3100 C.2   136  ARG136      0.2260
     61  O         51.2050   13.9450   15.2250 O.2   136  ARG136     -0.2867
     62  CB        50.5770   15.0680   18.2500 C.3   136  ARG136      0.0307
     63  CG        51.5100   16.1480   17.6890 C.3   136  ARG136      0.0489
     64  CD        52.3040   16.8480   18.7910 C.3   136  ARG136      0.2205
     65  NE        53.2590   15.9510   19.4410 N.pl3 136  ARG136     -0.0865
     66  CZ        54.1730   16.3510   20.3230 C.cat 136  ARG136      0.5346
     67  NH1       54.2530   17.6280   20.6600 N.pl3 136  ARG136      0.1354
     68  NH2       55.0150   15.4760   20.8590 N.pl3 136  ARG136      0.1354
     69  N         51.6140   13.8180   12.2140 N.3   140  MET140     -0.1245
     70  CA        52.9440   14.0790   11.6710 C.3   140  MET140      0.1570
     71  C         53.1490   13.2270   10.4230 C.2   140  MET140      0.2261
     72  O         53.6700   13.7050    9.4160 O.2   140  MET140     -0.2867
     73  CB        54.0290   13.7230   12.6980 C.3   140  MET140      0.0387
     74  CG        54.1140   14.6820   13.8730 C.3   140  MET140      0.0595
     75  SD        55.2620   14.0730   15.1410 S.3   140  MET140     -0.1393
     76  CE        55.3530   15.5460   16.2130 C.3   140  MET140      0.0692
     77  N         66.0420   12.3110   18.2000 N.3   167  ALA167     -0.1231
     78  CA        64.7960   13.0610   18.4070 C.3   167  ALA167      0.1694
     79  C         63.6980   11.9970   18.3430 C.2   167  ALA167      0.2591
     80  O         63.6870   11.1860   17.4140 O.2   167  ALA167     -0.2718
     81  CB        64.6150   14.1190   17.2950 C.3   167  ALA167      0.0304
     82  N         62.7830   11.9810   19.3190 N.am  168  VAL168     -0.1980
     83  CA        61.7640   10.9280   19.3470 C.3   168  VAL168      0.1595
     84  C         61.0040   10.6930   18.0580 C.2   168  VAL168      0.2287
     85  O         60.5210   11.6270   17.4240 O.2   168  VAL168     -0.2864
     86  CB        60.7080   11.1190   20.4830 C.3   168  VAL168      0.0276
     87  CG1       61.3630   10.8930   21.8490 C.3   168  VAL168      0.0022
     88  CG2       60.0660   12.4900   20.3840 C.3   168  VAL168      0.0022
     89  N         57.7700    8.5250   22.3670 N.3   194  THR194     -0.1218
     90  CA        57.3340    9.8580   22.7730 C.3   194  THR194      0.1862
     91  C         56.6830    9.8480   24.1640 C.2   194  THR194      0.2287
     92  O         56.8310   10.7930   24.9450 O.2   194  THR194     -0.2866
     93  CB        56.3420   10.4380   21.7440 C.3   194  THR194      0.1770
     94  OG1       56.9620   10.4450   20.4500 O.3   194  THR194     -0.2211
     95  CG2       55.9700   11.8600   22.1060 C.3   194  THR194      0.0375
     96  N         59.4350    9.6880   26.5930 N.3   197  LEU197     -0.1245
     97  CA        60.0540   10.9850   26.8020 C.3   197  LEU197      0.1561
     98  C         59.2690   11.7770   27.8540 C.2   197  LEU197      0.2260
     99  O         59.8580   12.3600   28.7690 O.2   197  LEU197     -0.2867
    100  CB        60.0880   11.7710   25.4900 C.3   197  LEU197      0.0270
    101  CG        60.4540   13.2530   25.6000 C.3   197  LEU197      0.0019
    102  CD1       61.8360   13.4080   26.2190 C.3   197  LEU197      0.0001
    103  CD2       60.3940   13.8880   24.2180 C.3   197  LEU197      0.0001
    104  N         60.4520   13.3240   31.4030 N.3   201  GLN201     -0.1245
    105  CA        60.3120   14.7440   31.7040 C.3   201  GLN201      0.1566
    106  C         59.5510   14.9330   33.0140 C.2   201  GLN201      0.2260
    107  O         59.9210   15.7690   33.8360 O.2   201  GLN201     -0.2867
    108  CB        59.5960   15.4560   30.5540 C.3   201  GLN201      0.0367
    109  CG        60.3960   15.4320   29.2620 C.3   201  GLN201      0.0905
    110  CD        59.5980   15.9240   28.0770 C.2   201  GLN201      0.2608
    111  OE1       58.5230   15.4040   27.7850 O.2   201  GLN201     -0.2717
    112  NE2       60.1240   16.9250   27.3830 N.am  201  GLN201     -0.0878
@<TRIPOS>BOND
     1    72    71    2
     2    71    70    1
     3    70    69    1
     4    70    73    1
     5    38    39    1
     6    73    74    1
     7    39    40    1
     8    74    75    1
     9    40    42   am
    10    40    41    2
    11    42    43    1
    12    47    46    1
    13    75    76    1
    14    61    60    2
    15    48    46    1
    16    49    50    1
    17    49    44   am
    18    46    43    1
    19    43    44    1
    20    33    32    2
    21    50    51    1
    22    50    53    1
    23    51    52    2
    24    60    59    1
    25    44    45    2
    26    28    27    2
    27    32    31    1
    28    59    58    1
    29    59    62    1
    30    81    78    1
    31    37    35    1
    32    80    79    2
    33    85    84    2
    34    31    34    1
    35    31    30    1
    36    63    62    1
    37    63    64    1
    38    27    30   am
    39    27    26    1
    40    84    83    1
    41    77    78    1
    42    34    35    1
    43    79    78    1
    44    79    82   am
    45    35    36    1
    46    26    29    1
    47    26    25    1
    48    64    65    1
    49    82    83    1
    50    83    86    1
    51    65    66    2
    52    66    67    1
    53    66    68    1
    54    88    86    1
    55    94    93    1
    56    86    87    1
    57    24    22   ar
    58    20    19    2
    59    22    21    1
    60    22    23   ar
    61    93    95    1
    62    93    90    1
    63    21    18    1
    64    19    18    1
    65    89    90    1
    66    90    91    1
    67    18    17    1
    68     6     5    1
    69    91    92    2
    70   103   101    1
    71     5     7    1
    72     5     2    1
    73    10    11    2
    74    10     9    1
    75     3     2    1
    76     3     4    2
    77     2     1    1
    78   100   101    1
    79   100    97    1
    80   101   102    1
    81     8     9    1
    82     9    12    1
    83    16    15    1
    84    12    13    1
    85    15    14    1
    86    96    97    1
    87    54    55    1
    88    97    98    1
    89   112   110   am
    90    13    14    1
    91    55    56    1
    92    56    57    2
    93   111   110    2
    94    98    99    2
    95   110   109    1
    96   109   108    1
    97   108   105    1
    98   104   105    1
    99   105   106    1
   100   106   107    2
