@<TRIPOS>MOLECULE
tmp/3crzA00.pdb
 177 167 0 0 0
SMALL
GASTEIGER

@<TRIPOS>ATOM
      1  N        125.8460   23.4370    9.1870 N.3    68  ILE68      -0.1245
      2  CA       125.1640   24.7190    9.0420 C.3    68  ILE68       0.1561
      3  C        126.0830   25.5230    8.0990 C.2    68  ILE68       0.2260
      4  O        127.2380   25.1480    7.8690 O.2    68  ILE68      -0.2867
      5  CB       125.1370   25.4610   10.3730 C.3    68  ILE68       0.0252
      6  CG1      124.2630   26.7120   10.2710 C.3    68  ILE68       0.0019
      7  CG2      126.5850   25.8110   10.8110 C.3    68  ILE68       0.0019
      8  CD1      122.7690   26.3760   10.3260 C.3    68  ILE68       0.0001
      9  N        126.9740   29.3590    8.1180 N.3    70  VAL70      -0.1245
     10  CA       126.7920   30.6810    8.7160 C.3    70  VAL70       0.1561
     11  C        127.4760   31.6750    7.7790 C.2    70  VAL70       0.2260
     12  O        128.6830   31.6380    7.5930 O.2    70  VAL70      -0.2867
     13  CB       127.4220   30.7530   10.1380 C.3    70  VAL70       0.0252
     14  CG1      127.1400   32.1210   10.7730 C.3    70  VAL70       0.0019
     15  CG2      126.8550   29.6510   11.0220 C.3    70  VAL70       0.0019
     16  N        117.0010   19.6720   16.7950 N.3   114  THR114     -0.1203
     17  CA       116.5860   20.8270   16.0400 C.3   114  THR114      0.1994
     18  C        117.7920   21.1290   15.1760 C.2   114  THR114      0.2618
     19  O        118.9360   20.8470   15.5690 O.2   114  THR114     -0.2717
     20  CB       116.2720   22.0530   16.9390 C.3   114  THR114      0.1784
     21  OG1      117.4430   22.4460   17.6770 O.3   114  THR114     -0.2211
     22  CG2      115.1290   21.7280   17.8870 C.3   114  THR114      0.0376
     23  N        117.5220   21.6560   13.9900 N.am  115  GLY115     -0.1942
     24  CA       118.5740   22.0340   13.0730 C.3   115  GLY115      0.2014
     25  C        119.6060   20.9620   12.8270 C.2   115  GLY115      0.2639
     26  O        119.2850   19.7950   12.6040 O.2   115  GLY115     -0.2714
     27  N        120.8630   21.3660   12.9070 N.am  116  THR116     -0.1950
     28  CA       121.9470   20.4450   12.6660 C.3   116  THR116      0.1897
     29  C        122.1120   19.4730   13.7980 C.2   116  THR116      0.2313
     30  O        122.9060   18.5230   13.6920 O.2   116  THR116     -0.2863
     31  CB       123.2290   21.2150   12.4340 C.3   116  THR116      0.1794
     32  OG1      123.4700   22.0540   13.5650 O.3   116  THR116     -0.2208
     33  CG2      123.1060   22.0630   11.1750 C.3   116  THR116      0.0378
     34  N        113.2480   19.0750   14.5600 N.3   142  GLY142     -0.1210
     35  CA       112.5250   20.3310   14.4980 C.3   142  GLY142      0.1956
     36  C        113.3020   21.3890   13.7570 C.2   142  GLY142      0.2612
     37  O        114.4710   21.6760   14.0630 O.2   142  GLY142     -0.2717
     38  N        112.6560   21.9810   12.7660 N.am  143  VAL143     -0.1965
     39  CA       113.2900   23.0370   11.9890 C.3   143  VAL143      0.1727
     40  C        112.2810   24.1410   11.7560 C.2   143  VAL143      0.2616
     41  O        111.0730   23.9860   11.9800 O.2   143  VAL143     -0.2715
     42  CB       113.8110   22.5360   10.6150 C.3   143  VAL143      0.0290
     43  CG1      114.9120   21.4690   10.8260 C.3   143  VAL143      0.0023
     44  CG2      112.6590   21.9600    9.8050 C.3   143  VAL143      0.0023
     45  N        112.7930   25.2720   11.3080 N.am  144  ARG144     -0.1977
     46  CA       111.9580   26.4280   11.0470 C.3   144  ARG144      0.1597
     47  C        111.2470   26.2780    9.7020 C.2   144  ARG144      0.2287
     48  O        110.0390   26.5040    9.5880 O.2   144  ARG144     -0.2864
     49  CB       112.8680   27.6440   11.0330 C.3   144  ARG144      0.0334
     50  CG       112.2010   28.9590   10.7980 C.3   144  ARG144      0.0492
     51  CD       113.2730   30.0560   10.7350 C.3   144  ARG144      0.2205
     52  NE       114.0590   30.1770   11.9670 N.pl3 144  ARG144     -0.0865
     53  CZ       114.9380   31.1560   12.1820 C.cat 144  ARG144      0.5346
     54  NH1      115.1330   32.0740   11.2430 N.pl3 144  ARG144      0.1354
     55  NH2      115.6010   31.2330   13.3300 N.pl3 144  ARG144      0.1354
     56  N        114.7460   22.7910    5.5730 N.3   148  GLU148     -0.1245
     57  CA       115.7730   22.4290    6.5480 C.3   148  GLU148      0.1567
     58  C        115.6650   20.9940    7.0250 C.2   148  GLU148      0.2260
     59  O        116.4870   20.5380    7.8020 O.2   148  GLU148     -0.2867
     60  CB       115.7320   23.3820    7.7450 C.3   148  GLU148      0.0388
     61  CG       116.1450   24.7950    7.3510 C.3   148  GLU148      0.1160
     62  CD       115.8740   25.7990    8.4340 C.2   148  GLU148      0.3649
     63  OE1      114.8790   25.6250    9.1720 O.co2 148  GLU148     -0.2457
     64  OE2      116.6420   26.7720    8.5340 O.co2 148  GLU148     -0.2457
     65  N        109.5420   18.1900   12.2500 N.3   178  LEU178     -0.1245
     66  CA       108.6990   19.2530   12.7550 C.3   178  LEU178      0.1561
     67  C        109.1280   20.5320   12.1040 C.2   178  LEU178      0.2260
     68  O        110.3210   20.8130   12.0110 O.2   178  LEU178     -0.2867
     69  CB       108.8460   19.4140   14.2730 C.3   178  LEU178      0.0270
     70  CG       108.0910   18.3890   15.1070 C.3   178  LEU178      0.0019
     71  CD1      108.4980   18.4590   16.5920 C.3   178  LEU178      0.0001
     72  CD2      106.6180   18.6610   14.9070 C.3   178  LEU178      0.0001
     73  N        108.2170   24.7540   12.0810 N.3   180  THR180     -0.1203
     74  CA       107.4600   25.7330   12.8380 C.3   180  THR180      0.1994
     75  C        106.9910   26.9570   12.0920 C.2   180  THR180      0.2617
     76  O        106.0320   27.5950   12.5170 O.2   180  THR180     -0.2717
     77  CB       108.2860   26.2210   14.0280 C.3   180  THR180      0.1784
     78  OG1      109.6120   26.4700   13.5710 O.3   180  THR180     -0.2211
     79  CG2      108.3190   25.1760   15.1340 C.3   180  THR180      0.0376
     80  N        107.6360   27.3030   10.9850 N.am  181  ARG181     -0.1979
     81  CA       107.2250   28.5420   10.3350 C.3   181  ARG181      0.1597
     82  C        106.6580   28.4310    8.9420 C.2   181  ARG181      0.2287
     83  O        106.5140   29.4270    8.2550 O.2   181  ARG181     -0.2864
     84  CB       108.4090   29.5070   10.3530 C.3   181  ARG181      0.0334
     85  CG       108.9780   29.6360   11.7640 C.3   181  ARG181      0.0492
     86  CD       109.9620   30.7760   11.9250 C.3   181  ARG181      0.2205
     87  NE       110.7270   30.6260   13.1700 N.pl3 181  ARG181     -0.0865
     88  CZ       111.7760   31.3800   13.4970 C.cat 181  ARG181      0.5346
     89  NH1      112.1830   32.3380   12.6720 N.pl3 181  ARG181      0.1354
     90  NH2      112.4210   31.1810   14.6430 N.pl3 181  ARG181      0.1354
     91  N        105.1450   22.8710   14.7870 N.3   188  GLY188     -0.1210
     92  CA       105.4580   23.1420   16.1700 C.3   188  GLY188      0.1956
     93  C        106.8110   22.7530   16.7120 C.2   188  GLY188      0.2612
     94  O        107.6240   22.1110   16.0290 O.2   188  GLY188     -0.2717
     95  N        107.0390   23.1710   17.9480 N.am  189  ARG189     -0.1965
     96  CA       108.2590   22.8530   18.6600 C.3   189  ARG189      0.1729
     97  C        107.9990   21.5450   19.3820 C.2   189  ARG189      0.2616
     98  O        106.8960   21.3000   19.8650 O.2   189  ARG189     -0.2715
     99  CB       108.5540   23.9180   19.6840 C.3   189  ARG189      0.0348
    100  CG       108.8860   25.2440   19.0770 C.3   189  ARG189      0.0492
    101  CD       109.2850   26.1830   20.1580 C.3   189  ARG189      0.2205
    102  NE       109.8550   27.4070   19.6090 N.pl3 189  ARG189     -0.0865
    103  CZ       110.4770   28.3100   20.3540 C.cat 189  ARG189      0.5346
    104  NH1      110.5970   28.1080   21.6570 N.pl3 189  ARG189      0.1354
    105  NH2      110.9740   29.4110   19.8020 N.pl3 189  ARG189      0.1354
    106  N        109.0230   20.7070   19.4850 N.am  190  GLN190     -0.1963
    107  CA       108.8420   19.4340   20.1330 C.3   190  GLN190      0.1733
    108  C        108.6000   19.5770   21.6350 C.2   190  GLN190      0.2617
    109  O        107.9780   18.7110   22.2600 O.2   190  GLN190     -0.2715
    110  CB       110.0520   18.5550   19.8440 C.3   190  GLN190      0.0408
    111  CG       111.3470   19.1400   20.2890 C.3   190  GLN190      0.0908
    112  CD       112.4750   18.5410   19.4790 C.2   190  GLN190      0.2608
    113  OE1      112.9690   19.1450   18.5240 O.2   190  GLN190     -0.2717
    114  NE2      112.8480   17.3380   19.8280 N.am  190  GLN190     -0.0878
    115  N        109.1140   20.6520   22.2180 N.am  191  THR191     -0.1951
    116  CA       108.9020   20.9140   23.6290 C.3   191  THR191      0.1897
    117  C        107.3850   21.0150   23.8620 C.2   191  THR191      0.2313
    118  O        106.8130   20.2840   24.6770 O.2   191  THR191     -0.2863
    119  CB       109.5770   22.2420   24.0440 C.3   191  THR191      0.1794
    120  OG1      109.2790   23.2510   23.0710 O.3   191  THR191     -0.2208
    121  CG2      111.0930   22.0630   24.1510 C.3   191  THR191      0.0378
    122  N        119.6150   23.4880   19.6660 N.3   220  SER220     -0.1203
    123  CA       120.0660   24.7820   20.1380 C.3   220  SER220      0.2005
    124  C        120.0540   24.8180   21.6450 C.2   220  SER220      0.2461
    125  O        119.2680   24.1380   22.2940 O.2   220  SER220     -0.2732
    126  CB       119.1470   25.8830   19.6130 C.3   220  SER220      0.2103
    127  OG       117.8690   25.7330   20.1680 O.3   220  SER220     -0.2182
    128  N        120.9410   25.6260   22.2280 N.am  221  PRO221     -0.2717
    129  CA       121.0410   25.7770   23.6780 C.3   221  PRO221      0.1536
    130  C        119.6420   25.9720   24.3170 C.2   221  PRO221      0.2599
    131  O        119.2840   25.3400   25.3220 O.2   221  PRO221     -0.2715
    132  CB       121.9270   27.0170   23.8160 C.3   221  PRO221      0.0310
    133  CG       122.9060   26.8340   22.6500 C.3   221  PRO221      0.0237
    134  CD       121.9550   26.4390   21.5200 C.3   221  PRO221      0.0939
    135  N        118.8580   26.8470   23.7050 N.am  222  SER222     -0.1936
    136  CA       117.5150   27.1490   24.1910 C.3   222  SER222      0.2055
    137  C        116.6670   25.8710   24.1890 C.2   222  SER222      0.2642
    138  O        116.1080   25.4880   25.1980 O.2   222  SER222     -0.2714
    139  CB       116.8910   28.2220   23.2920 C.3   222  SER222      0.2130
    140  OG       115.4860   28.3090   23.4900 O.3   222  SER222     -0.2179
    141  N        116.6080   25.1990   23.0490 N.am  223  MET223     -0.1976
    142  CA       115.8420   23.9680   22.9300 C.3   223  MET223      0.1605
    143  C        116.3500   22.9030   23.8810 C.2   223  MET223      0.2287
    144  O        115.5730   22.1680   24.4950 O.2   223  MET223     -0.2864
    145  CB       115.9120   23.4550   21.4890 C.3   223  MET223      0.0413
    146  CG       115.2550   22.1080   21.2790 C.3   223  MET223      0.0598
    147  SD       116.4290   20.7930   21.5700 S.3   223  MET223     -0.1393
    148  CE       115.3830   19.3340   21.1960 C.3   223  MET223      0.0692
    149  N        115.1580   23.6830   27.4400 N.3   226  GLU226     -0.1245
    150  CA       113.7300   23.4820   27.5920 C.3   226  GLU226      0.1567
    151  C        113.2820   22.0310   27.3990 C.2   226  GLU226      0.2260
    152  O        112.4020   21.5500   28.1010 O.2   226  GLU226     -0.2867
    153  CB       112.9750   24.3800   26.6410 C.3   226  GLU226      0.0388
    154  CG       111.4820   24.2710   26.8320 C.3   226  GLU226      0.1160
    155  CD       110.7360   25.3060   26.0570 C.2   226  GLU226      0.3649
    156  OE1      109.5020   25.3640   26.2070 O.co2 226  GLU226     -0.2457
    157  OE2      111.3750   26.0580   25.2980 O.co2 226  GLU226     -0.2457
    158  N        124.9910   23.6160   18.9480 N.3   254  PHE254     -0.1241
    159  CA       125.8540   24.7650   18.6950 C.3   254  PHE254      0.1605
    160  C        125.7930   25.6760   19.8900 C.2   254  PHE254      0.2264
    161  O        124.9780   25.4830   20.7890 O.2   254  PHE254     -0.2867
    162  CB       125.4340   25.5260   17.4280 C.3   254  PHE254      0.0534
    163  CG       124.1120   26.2250   17.5430 C.ar  254  PHE254     -0.0203
    164  CD1      124.0360   27.5160   18.0530 C.ar  254  PHE254     -0.0042
    165  CD2      122.9380   25.5780   17.1770 C.ar  254  PHE254     -0.0042
    166  CE1      122.8010   28.1440   18.1950 C.ar  254  PHE254     -0.0003
    167  CE2      121.6890   26.2050   17.3170 C.ar  254  PHE254     -0.0003
    168  CZ       121.6260   27.4910   17.8280 C.ar  254  PHE254     -0.0000
    169  N        126.1260   29.9480   21.0820 N.3   256  GLU256     -0.1245
    170  CA       126.1100   31.3100   20.5790 C.3   256  GLU256      0.1567
    171  C        127.4930   31.8430   20.8290 C.2   256  GLU256      0.2260
    172  O        127.9100   31.9410   21.9710 O.2   256  GLU256     -0.2867
    173  CB       125.0970   32.1650   21.3470 C.3   256  GLU256      0.0388
    174  CG       123.6500   31.8260   21.0800 C.3   256  GLU256      0.1160
    175  CD       123.2570   32.0170   19.6130 C.2   256  GLU256      0.3649
    176  OE1      123.9260   32.7770   18.8840 O.co2 256  GLU256     -0.2457
    177  OE2      122.2620   31.4090   19.1930 O.co2 256  GLU256     -0.2457
@<TRIPOS>BOND
     1    56    57    1
     2    57    58    1
     3    57    60    1
     4    58    59    2
     5    61    60    1
     6    61    62    1
     7    12    11    2
     8    11    10    1
     9     4     3    2
    10     3     2    1
    11     9    10    1
    12    83    82    2
    13    62    64   ar
    14    62    63   ar
    15    10    13    1
    16    82    81    1
    17     2     1    1
    18     2     5    1
    19    48    47    2
    20    47    46    1
    21    44    42    1
    22    13    14    1
    23    13    15    1
    24     6     8    1
    25     6     5    1
    26    81    84    1
    27    81    80    1
    28    84    85    1
    29     5     7    1
    30    42    43    1
    31    42    39    1
    32    51    50    1
    33    51    52    1
    34    50    49    1
    35    80    75   am
    36    49    46    1
    37    46    45    1
    38    33    31    1
    39    54    53    1
    40    45    40   am
    41    40    41    2
    42    40    39    1
    43    85    86    1
    44    86    87    1
    45    52    53    2
    46    39    38    1
    47    68    67    2
    48    73    74    1
    49    75    76    2
    50    75    74    1
    51    67    66    1
    52    53    55    1
    53    65    66    1
    54    31    28    1
    55    31    32    1
    56    26    25    2
    57    28    27    1
    58    28    29    1
    59    89    88    1
    60    66    69    1
    61    38    36   am
    62    25    27   am
    63    25    24    1
    64    74    77    1
    65    24    23    1
    66    87    88    2
    67    88    90    1
    68    78    77    1
    69    30    29    2
    70    36    37    2
    71    36    35    1
    72    23    18   am
    73    77    79    1
    74    69    70    1
    75    35    34    1
    76    91    92    1
    77    72    70    1
    78    70    71    1
    79    18    19    2
    80    18    17    1
    81    94    93    2
    82    17    16    1
    83    17    20    1
    84    92    93    1
    85    93    95   am
    86    20    21    1
    87    20    22    1
    88   165   167   ar
    89   165   163   ar
    90   167   168   ar
    91   162   163    1
    92   162   159    1
    93   163   164   ar
    94   168   166   ar
    95    95    96    1
    96   164   166   ar
    97   113   112    2
    98    96    97    1
    99    96    99    1
   100   159   158    1
   101   159   160    1
   102   176   175   ar
   103   100    99    1
   104   100   101    1
   105   177   175   ar
   106    97   106   am
   107    97    98    2
   108   112   114   am
   109   112   111    1
   110   106   107    1
   111   102   101    1
   112   102   103    2
   113   175   174    1
   114   126   123    1
   115   126   127    1
   116   122   123    1
   117   105   103    1
   118   110   107    1
   119   110   111    1
   120   160   161    2
   121   107   108    1
   122   123   124    1
   123   103   104    1
   124   170   171    1
   125   170   169    1
   126   170   173    1
   127   171   172    2
   128   174   173    1
   129   148   147    1
   130   146   145    1
   131   146   147    1
   132   145   142    1
   133   134   128    1
   134   134   133    1
   135   108   115   am
   136   108   109    2
   137   124   128   am
   138   124   125    2
   139   115   116    1
   140   128   129    1
   141   133   132    1
   142   142   141    1
   143   142   143    1
   144   141   137   am
   145   120   119    1
   146   139   140    1
   147   139   136    1
   148   116   117    1
   149   116   119    1
   150   129   132    1
   151   129   130    1
   152   135   136    1
   153   135   130   am
   154   117   118    2
   155   143   144    2
   156   119   121    1
   157   137   136    1
   158   137   138    2
   159   130   131    2
   160   157   155   ar
   161   155   156   ar
   162   155   154    1
   163   153   154    1
   164   153   150    1
   165   151   150    1
   166   151   152    2
   167   149   150    1
