@<TRIPOS>MOLECULE
tmp/3cs7A00.pdb
 187 183 0 0 0
SMALL
GASTEIGER

@<TRIPOS>ATOM
      1  N         11.3300   41.3960   49.6300 N.3    82  LYS82      -0.1231
      2  CA        10.1920   41.8080   50.4450 C.3    82  LYS82       0.1693
      3  C          9.5010   40.6330   51.1270 C.2    82  LYS82       0.2592
      4  O          8.8350   40.8080   52.1390 O.2    82  LYS82      -0.2718
      5  CB         9.1740   42.5490   49.5740 C.3    82  LYS82       0.0285
      6  CG         9.7410   43.7630   48.8470 C.3    82  LYS82       0.0035
      7  CD         8.8220   44.3810   47.8030 C.3    82  LYS82       0.0206
      8  CE         7.4890   44.9360   48.2870 C.3    82  LYS82       0.1093
      9  NZ         7.6560   46.0740   49.2390 N.3    82  LYS82      -0.1314
     10  N          9.6730   39.4380   50.5680 N.am   83  GLU83      -0.1966
     11  CA         9.0300   38.2370   51.0890 C.3    83  GLU83       0.1733
     12  C          9.5960   37.6980   52.3930 C.2    83  GLU83       0.2617
     13  O          8.8470   37.3140   53.2830 O.2    83  GLU83      -0.2715
     14  CB         9.0610   37.1320   50.0290 C.3    83  GLU83       0.0429
     15  CG         8.1950   37.4100   48.8070 C.3    83  GLU83       0.1163
     16  CD         6.7100   37.3800   49.1210 C.2    83  GLU83       0.3649
     17  OE1        5.8970   37.6040   48.1960 O.co2  83  GLU83      -0.2457
     18  OE2        6.3510   37.1280   50.2930 O.co2  83  GLU83      -0.2457
     19  N         10.9190   37.6750   52.5030 N.am   84  THR84      -0.1937
     20  CA        11.5650   37.1610   53.7000 C.3    84  THR84       0.2028
     21  C         12.3630   38.2260   54.4590 C.2    84  THR84       0.2642
     22  O         12.8070   37.9930   55.5760 O.2    84  THR84      -0.2714
     23  CB        12.5120   36.0040   53.3310 C.3    84  THR84       0.1808
     24  OG1       13.5180   36.4840   52.4290 O.3    84  THR84      -0.2208
     25  CG2       11.7350   34.8700   52.6430 C.3    84  THR84       0.0379
     26  N         12.5330   39.3920   53.8410 N.am   85  TYR85      -0.1973
     27  CA        13.2990   40.4890   54.4270 C.3    85  TYR85       0.1639
     28  C         14.7780   40.1360   54.5300 C.2    85  TYR85       0.2290
     29  O         15.4990   40.7120   55.3250 O.2    85  TYR85      -0.2864
     30  CB        12.7560   40.8660   55.8120 C.3    85  TYR85       0.0560
     31  CG        11.7040   41.9540   55.7910 C.ar   85  TYR85      -0.0198
     32  CD1       10.7460   42.0050   54.7820 C.ar   85  TYR85      -0.0009
     33  CD2       11.6430   42.9140   56.8040 C.ar   85  TYR85      -0.0009
     34  CE1        9.7510   42.9780   54.7770 C.ar   85  TYR85       0.0417
     35  CE2       10.6460   43.8940   56.8130 C.ar   85  TYR85       0.0417
     36  CZ         9.7030   43.9180   55.7940 C.ar   85  TYR85       0.1957
     37  OH         8.7110   44.8740   55.7870 O.3    85  TYR85      -0.2866
     38  N          7.0050   52.5720   68.1720 N.3   132  ARG132     -0.1245
     39  CA         5.9270   52.3200   69.1160 C.3   132  ARG132      0.1563
     40  C          6.4080   51.8430   70.4740 C.2   132  ARG132      0.2260
     41  O          7.3810   51.1000   70.5730 O.2   132  ARG132     -0.2867
     42  CB         4.9660   51.2820   68.5430 C.3   132  ARG132      0.0307
     43  CG         4.2980   51.7030   67.2540 C.3   132  ARG132      0.0489
     44  CD         3.2990   50.6450   66.8190 C.3   132  ARG132      0.2205
     45  NE         2.6600   51.0060   65.5590 N.pl3 132  ARG132     -0.0865
     46  CZ         1.7200   50.2830   64.9640 C.cat 132  ARG132      0.5346
     47  NH1        1.3030   49.1520   65.5160 N.pl3 132  ARG132      0.1354
     48  NH2        1.1920   50.6930   63.8180 N.pl3 132  ARG132      0.1354
     49  N          2.7180   47.4490   71.0210 N.3   135  GLU135     -0.1245
     50  CA         2.4140   46.9450   69.6840 C.3   135  GLU135      0.1567
     51  C          1.2750   47.6990   68.9940 C.2   135  GLU135      0.2260
     52  O          1.3050   47.8990   67.7860 O.2   135  GLU135     -0.2867
     53  CB         2.0780   45.4520   69.7290 C.3   135  GLU135      0.0388
     54  CG         1.9470   44.8300   68.3460 C.3   135  GLU135      0.1160
     55  CD         1.5820   43.3560   68.3840 C.2   135  GLU135      0.3649
     56  OE1        2.3100   42.5730   69.0290 O.co2 135  GLU135     -0.2457
     57  OE2        0.5650   42.9830   67.7600 O.co2 135  GLU135     -0.2457
     58  N          8.9480   32.2640   60.5210 N.3   162  PHE162     -0.1241
     59  CA         9.5950   32.6170   59.2650 C.3   162  PHE162      0.1605
     60  C         11.0780   32.2800   59.3110 C.2   162  PHE162      0.2264
     61  O         11.7090   32.3390   60.3650 O.2   162  PHE162     -0.2867
     62  CB         9.4040   34.1050   58.9960 C.3   162  PHE162      0.0534
     63  CG         7.9770   34.5440   59.0570 C.ar  162  PHE162     -0.0203
     64  CD1        7.0870   34.2010   58.0450 C.ar  162  PHE162     -0.0042
     65  CD2        7.5130   35.2990   60.1340 C.ar  162  PHE162     -0.0042
     66  CE1        5.7490   34.6080   58.1010 C.ar  162  PHE162     -0.0003
     67  CE2        6.1800   35.7080   60.1970 C.ar  162  PHE162     -0.0003
     68  CZ         5.3000   35.3620   59.1770 C.ar  162  PHE162     -0.0000
     69  N         11.3010   45.0830   73.7310 N.3   179  ASP179     -0.1225
     70  CA        11.6730   44.7110   72.3720 C.3   179  ASP179      0.1805
     71  C         11.6370   45.9780   71.5100 C.2   179  ASP179      0.2598
     72  O         11.2040   47.0430   71.9670 O.2   179  ASP179     -0.2718
     73  CB        10.6440   43.6810   71.8700 C.3   179  ASP179      0.1424
     74  CG        11.0280   43.0250   70.5510 C.2   179  ASP179      0.3668
     75  OD1       12.1520   43.2330   70.0520 O.co2 179  ASP179     -0.2456
     76  OD2       10.1810   42.2780   70.0150 O.co2 179  ASP179     -0.2456
     77  N         12.1250   45.8710   70.2800 N.am  180  ALA180     -0.1966
     78  CA        12.0720   46.9950   69.3590 C.3   180  ALA180      0.1728
     79  C         10.6410   46.8920   68.8370 C.2   180  ALA180      0.2616
     80  O          9.8920   46.0330   69.2750 O.2   180  ALA180     -0.2715
     81  CB        13.0740   46.8200   68.2280 C.3   180  ALA180      0.0334
     82  N         10.2630   47.7460   67.8970 N.am  181  CYS181     -0.1954
     83  CA         8.9020   47.7160   67.3900 C.3   181  CYS181      0.1843
     84  C          8.7400   48.6420   66.1750 C.2   181  CYS181      0.2625
     85  O          9.6310   49.4100   65.8470 O.2   181  CYS181     -0.2714
     86  CB         7.9560   48.1430   68.5250 C.3   181  CYS181      0.0997
     87  SG         6.1840   48.0630   68.1780 S.3   181  CYS181     -0.0797
     88  N          7.5970   48.5320   65.5070 N.am  182  GLN182     -0.1977
     89  CA         7.2740   49.3530   64.3430 C.3   182  GLN182      0.1601
     90  C          7.7500   50.8000   64.5300 C.2   182  GLN182      0.2287
     91  O          7.3910   51.4530   65.5050 O.2   182  GLN182     -0.2864
     92  CB         5.7610   49.3480   64.1330 C.3   182  GLN182      0.0394
     93  CG         5.2650   50.2700   63.0360 C.3   182  GLN182      0.0908
     94  CD         5.3670   49.6360   61.6770 C.2   182  GLN182      0.2608
     95  OE1        4.7500   48.5990   61.4210 O.2   182  GLN182     -0.2717
     96  NE2        6.1520   50.2460   60.7920 N.am  182  GLN182     -0.0878
     97  N         12.5210   50.2660   62.9980 N.3   185  SER185     -0.1217
     98  CA        13.1900   49.6180   61.8750 C.3   185  SER185      0.1889
     99  C         14.2120   50.4890   61.1530 C.2   185  SER185      0.2288
    100  O         13.9740   51.6620   60.8810 O.2   185  SER185     -0.2866
    101  CB        12.1560   49.1140   60.8690 C.3   185  SER185      0.2089
    102  OG        11.3300   48.1320   61.4590 O.3   185  SER185     -0.2183
    103  N         17.7070   47.1480   63.0180 N.3   203  VAL203     -0.1231
    104  CA        16.3860   46.6640   63.4040 C.3   203  VAL203      0.1692
    105  C         15.6660   46.2170   62.1300 C.2   203  VAL203      0.2593
    106  O         15.4100   47.0220   61.2420 O.2   203  VAL203     -0.2718
    107  CB        15.5730   47.7770   64.1010 C.3   203  VAL203      0.0266
    108  CG1       14.2800   47.2180   64.6600 C.3   203  VAL203      0.0020
    109  CG2       16.4010   48.3990   65.2100 C.3   203  VAL203      0.0020
    110  N         15.3500   44.9330   62.0310 N.am  204  SER204     -0.1938
    111  CA        14.6880   44.4390   60.8280 C.3   204  SER204      0.2055
    112  C         13.2010   44.1050   60.9740 C.2   204  SER204      0.2643
    113  O         12.3610   44.7150   60.3260 O.2   204  SER204     -0.2714
    114  CB        15.4250   43.2130   60.2900 C.3   204  SER204      0.2130
    115  OG        14.9230   42.8610   59.0070 O.3   204  SER204     -0.2179
    116  N         12.8720   43.1360   61.8140 N.am  205  TRP205     -0.1959
    117  CA        11.4710   42.7840   61.9710 C.3   205  TRP205      0.1771
    118  C         11.1910   41.9180   63.1850 C.2   205  TRP205      0.2620
    119  O         12.0920   41.5750   63.9500 O.2   205  TRP205     -0.2715
    120  CB        10.9580   42.0640   60.7170 C.3   205  TRP205      0.0590
    121  CG        11.7340   40.8180   60.3620 C.ar  205  TRP205      0.0006
    122  CD1       12.8980   40.7500   59.6550 C.ar  205  TRP205      0.0946
    123  CD2       11.4030   39.4710   60.7170 C.ar  205  TRP205      0.0152
    124  NE1       13.3200   39.4460   59.5480 N.ar  205  TRP205     -0.2442
    125  CE2       12.4230   38.6390   60.1980 C.ar  205  TRP205      0.0810
    126  CE3       10.3530   38.8860   61.4400 C.ar  205  TRP205      0.0012
    127  CZ2       12.4100   37.2470   60.3610 C.ar  205  TRP205      0.0191
    128  CZ3       10.3410   37.4980   61.6050 C.ar  205  TRP205      0.0001
    129  CH2       11.3680   36.6980   61.0720 C.ar  205  TRP205      0.0015
    130  N          9.9150   41.5830   63.3460 N.am  206  GLY206     -0.1940
    131  CA         9.4910   40.7480   64.4480 C.3   206  GLY206      0.2014
    132  C          8.0270   40.3820   64.3280 C.2   206  GLY206      0.2639
    133  O          7.2440   41.1000   63.7140 O.2   206  GLY206     -0.2714
    134  N          7.6620   39.2430   64.9040 N.am  207  GLU207     -0.1963
    135  CA         6.2770   38.8020   64.8870 C.3   207  GLU207      0.1733
    136  C          5.5910   39.5480   66.0230 C.2   207  GLU207      0.2617
    137  O          5.5090   39.0660   67.1450 O.2   207  GLU207     -0.2715
    138  CB         6.2060   37.2930   65.1040 C.3   207  GLU207      0.0429
    139  CG         6.9210   36.5040   64.0220 C.3   207  GLU207      0.1163
    140  CD         6.6290   35.0200   64.1030 C.2   207  GLU207      0.3649
    141  OE1        5.4290   34.6590   64.0800 O.co2 207  GLU207     -0.2457
    142  OE2        7.5910   34.2200   64.1880 O.co2 207  GLU207     -0.2457
    143  N          5.1030   40.7420   65.7140 N.am  208  GLY208     -0.1940
    144  CA         4.4750   41.5460   66.7410 C.3   208  GLY208      0.2014
    145  C          5.5950   42.1910   67.5310 C.2   208  GLY208      0.2639
    146  O          6.7250   42.2280   67.0610 O.2   208  GLY208     -0.2714
    147  N          5.3030   42.6860   68.7270 N.am  209  CYS209     -0.1967
    148  CA         6.3360   43.3270   69.5310 C.3   209  CYS209      0.1712
    149  C          6.3790   42.9010   70.9970 C.2   209  CYS209      0.2296
    150  O          5.4720   43.1980   71.7750 O.2   209  CYS209     -0.2864
    151  CB         6.1850   44.8460   69.4390 C.3   209  CYS209      0.0983
    152  SG         6.1730   45.4390   67.7460 S.3   209  CYS209     -0.0798
    153  N          6.2740   39.8530   72.1760 N.3   211  ARG211     -0.1245
    154  CA         5.3790   38.7400   72.4650 C.3   211  ARG211      0.1563
    155  C          6.1070   37.5900   73.1550 C.2   211  ARG211      0.2260
    156  O          7.3470   37.4620   73.0660 O.2   211  ARG211     -0.2867
    157  CB         4.7440   38.2400   71.1740 C.3   211  ARG211      0.0307
    158  CG         3.8940   39.2820   70.4750 C.3   211  ARG211      0.0489
    159  CD         3.2860   38.7220   69.2030 C.3   211  ARG211      0.2205
    160  NE         2.3100   39.6370   68.6180 N.pl3 211  ARG211     -0.0865
    161  CZ         1.6200   39.3790   67.5130 C.cat 211  ARG211      0.5346
    162  NH1        1.7990   38.2300   66.8710 N.pl3 211  ARG211      0.1354
    163  NH2        0.7510   40.2660   67.0480 N.pl3 211  ARG211      0.1354
    164  N         13.2410   39.6560   68.6960 N.3   216  GLY216     -0.1210
    165  CA        13.4370   40.6980   67.7000 C.3   216  GLY216      0.1956
    166  C         14.4380   40.2090   66.6650 C.2   216  GLY216      0.2612
    167  O         15.4170   39.5480   67.0170 O.2   216  GLY216     -0.2717
    168  N         14.1990   40.5150   65.3930 N.am  217  ILE217     -0.1965
    169  CA        15.0990   40.0820   64.3300 C.3   217  ILE217      0.1727
    170  C         15.8790   41.2630   63.7540 C.2   217  ILE217      0.2616
    171  O         15.2970   42.2720   63.3300 O.2   217  ILE217     -0.2715
    172  CB        14.3310   39.4000   63.1750 C.3   217  ILE217      0.0290
    173  CG1       13.2420   38.4780   63.7310 C.3   217  ILE217      0.0022
    174  CG2       15.3100   38.6060   62.3050 C.3   217  ILE217      0.0023
    175  CD1       13.7540   37.4110   64.6840 C.3   217  ILE217      0.0001
    176  N         17.1980   41.1150   63.7210 N.am  218  TYR218     -0.1974
    177  CA        18.0860   42.1550   63.2290 C.3   218  TYR218      0.1639
    178  C         18.9610   41.7120   62.0580 C.2   218  TYR218      0.2290
    179  O         19.3410   40.5520   61.9540 O.2   218  TYR218     -0.2864
    180  CB        18.9900   42.6420   64.3650 C.3   218  TYR218      0.0560
    181  CG        18.2380   43.1810   65.5630 C.ar  218  TYR218     -0.0198
    182  CD1       17.5220   42.3280   66.4160 C.ar  218  TYR218     -0.0009
    183  CD2       18.2080   44.5510   65.8230 C.ar  218  TYR218     -0.0009
    184  CE1       16.7850   42.8400   67.5030 C.ar  218  TYR218      0.0417
    185  CE2       17.4840   45.0720   66.8970 C.ar  218  TYR218      0.0417
    186  CZ        16.7730   44.2140   67.7330 C.ar  218  TYR218      0.1957
    187  OH        16.0580   44.7440   68.7830 O.3   218  TYR218     -0.2866
@<TRIPOS>BOND
     1     7     8    1
     2     7     6    1
     3    17    16   ar
     4     8     9    1
     5    15    16    1
     6    15    14    1
     7     6     5    1
     8    16    18   ar
     9     5     2    1
    10     1     2    1
    11    14    11    1
    12     2     3    1
    13    10    11    1
    14    10     3   am
    15    11    12    1
    16     3     4    2
    17    12    19   am
    18    12    13    2
    19    24    23    1
    20    19    20    1
    21    25    23    1
    22    23    20    1
    23    20    21    1
    24    26    27    1
    25    26    21   am
    26    27    28    1
    27    27    30    1
    28    21    22    2
    29    28    29    2
    30    34    32   ar
    31    34    36   ar
    32    32    31   ar
    33    37    36    1
    34    31    30    1
    35    31    33   ar
    36    36    35   ar
    37    33    35   ar
    38    64    66   ar
    39    64    63   ar
    40    66    68   ar
    41    62    63    1
    42    62    59    1
    43   115   114    1
    44    63    65   ar
    45    68    67   ar
    46    59    60    1
    47    59    58    1
    48    60    61    2
    49   124   122   ar
    50   124   125   ar
    51   122   121   ar
    52    65    67   ar
    53   125   127   ar
    54   125   123   ar
    55   114   111    1
    56   113   112    2
    57   127   129   ar
    58   121   120    1
    59   121   123   ar
    60   120   117    1
    61   123   126   ar
    62    96    94   am
    63   111   112    1
    64   111   110    1
    65   101   102    1
    66   101    98    1
    67   100    99    2
    68   112   116   am
    69   129   128   ar
    70    99    98    1
    71   106   105    2
    72    95    94    2
    73   126   128   ar
    74    94    93    1
    75   116   117    1
    76    98    97    1
    77   179   178    2
    78   117   118    1
    79   110   105   am
    80   178   177    1
    81   105   104    1
    82   174   172    1
    83   103   104    1
    84    93    92    1
    85   172   173    1
    86   172   169    1
    87   118   130   am
    88   118   119    2
    89   177   176    1
    90   177   180    1
    91   171   170    2
    92   130   131    1
    93   104   107    1
    94   133   132    2
    95   176   170   am
    96   173   175    1
    97   170   169    1
    98    48    46    1
    99   139   140    1
   100   139   138    1
   101   141   140   ar
   102   107   108    1
   103   107   109    1
   104   140   142   ar
   105    92    89    1
   106   132   131    1
   107   132   134   am
   108   169   168    1
   109    89    90    1
   110    89    88    1
   111   180   181    1
   112    90    91    2
   113   135   134    1
   114   135   138    1
   115   135   136    1
   116    46    47    1
   117    46    45    2
   118   168   166   am
   119    88    84   am
   120    45    44    1
   121   181   183   ar
   122   181   182   ar
   123   143   136   am
   124   143   144    1
   125   183   185   ar
   126    85    84    2
   127   136   137    2
   128    84    83    1
   129   182   184   ar
   130   166   167    2
   131   166   165    1
   132   144   145    1
   133    44    43    1
   134   162   161    1
   135   185   186   ar
   136   163   161    1
   137   146   145    2
   138    43    42    1
   139    83    82    1
   140    83    86    1
   141   184   186   ar
   142   161   160    2
   143   145   147   am
   144   165   164    1
   145   186   187    1
   146   152   151    1
   147    57    55   ar
   148    52    51    2
   149    82    79   am
   150    38    39    1
   151    87    86    1
   152    81    78    1
   153    54    55    1
   154    54    53    1
   155    55    56   ar
   156    42    39    1
   157   160   159    1
   158   147   148    1
   159    79    80    2
   160    79    78    1
   161    51    50    1
   162    39    40    1
   163   159   158    1
   164    78    77    1
   165   151   148    1
   166   148   149    1
   167    50    53    1
   168    50    49    1
   169    76    74   ar
   170    75    74   ar
   171    77    71   am
   172    40    41    2
   173   158   157    1
   174    74    73    1
   175   149   150    2
   176   157   154    1
   177    71    72    2
   178    71    70    1
   179    73    70    1
   180   153   154    1
   181    70    69    1
   182   154   155    1
   183   156   155    2
