@<TRIPOS>MOLECULE
tmp/3csbA09.pdb
 66 61 0 0 0
SMALL
GASTEIGER

@<TRIPOS>ATOM
      1  N         17.5160  -42.6910  -31.9190 N.3    12  LYS12      -0.1245
      2  CA        18.5010  -41.7850  -31.2900 C.3    12  LYS12       0.1561
      3  C         19.8860  -41.8860  -31.9110 C.2    12  LYS12       0.2260
      4  O         20.1230  -42.7630  -32.7150 O.2    12  LYS12      -0.2867
      5  CB        18.6040  -42.0680  -29.7850 C.3    12  LYS12       0.0271
      6  CG        17.2600  -42.0670  -29.0460 C.3    12  LYS12       0.0035
      7  CD        16.6180  -40.6900  -28.8820 C.3    12  LYS12       0.0206
      8  CE        15.3030  -40.8750  -28.1060 C.3    12  LYS12       0.1093
      9  NZ        14.2010  -40.0970  -28.7340 N.3    12  LYS12      -0.1314
     10  N         12.8690  -42.2100  -22.0180 N.3    60  ALA60      -0.1245
     11  CA        12.0760  -41.1640  -21.3310 C.3    60  ALA60       0.1562
     12  C         11.9300  -41.4500  -19.8390 C.2    60  ALA60       0.2260
     13  O         11.6400  -42.5640  -19.4390 O.2    60  ALA60      -0.2867
     14  CB        10.6870  -40.9790  -22.0040 C.3    60  ALA60       0.0290
     15  N         18.4600  -35.2030  -21.9830 N.3   106  ALA106     -0.1231
     16  CA        17.8570  -34.2140  -22.8980 C.3   106  ALA106      0.1694
     17  C         16.4440  -33.9070  -22.4390 C.2   106  ALA106      0.2592
     18  O         15.8580  -34.6920  -21.6870 O.2   106  ALA106     -0.2718
     19  CB        17.8470  -34.7390  -24.3330 C.3   106  ALA106      0.0304
     20  N         15.9150  -32.7600  -22.8680 N.am  107  VAL107     -0.1966
     21  CA        14.6830  -32.1990  -22.2980 C.3   107  VAL107      0.1727
     22  C         13.7440  -31.8130  -23.4380 C.2   107  VAL107      0.2616
     23  O         14.2040  -31.1560  -24.3960 O.2   107  VAL107     -0.2715
     24  CB        15.0420  -30.9280  -21.4930 C.3   107  VAL107      0.0290
     25  CG1       13.8110  -30.2300  -20.9720 C.3   107  VAL107      0.0023
     26  CG2       15.9310  -31.3400  -20.2920 C.3   107  VAL107      0.0023
     27  N         12.4560  -32.1750  -23.3530 N.am  108  GLU108     -0.1977
     28  CA        11.4960  -31.7980  -24.3890 C.3   108  GLU108      0.1602
     29  C         10.2580  -31.1660  -23.7580 C.2   108  GLU108      0.2287
     30  O          9.8460  -31.5780  -22.7060 O.2   108  GLU108     -0.2864
     31  CB        11.0940  -33.0310  -25.2020 C.3   108  GLU108      0.0415
     32  CG        10.7620  -32.7430  -26.6540 C.3   108  GLU108      0.1163
     33  CD        10.7110  -33.9960  -27.5080 C.2   108  GLU108      0.3649
     34  OE1        9.9480  -34.9150  -27.1330 O.co2 108  GLU108     -0.2457
     35  OE2       11.4060  -34.0720  -28.5550 O.co2 108  GLU108     -0.2457
     36  N          9.3440  -33.8360  -20.7270 N.3   257  GLY257     -0.1210
     37  CA         9.9170  -35.1920  -20.8350 C.3   257  GLY257      0.1956
     38  C         11.4300  -35.0650  -20.7860 C.2   257  GLY257      0.2612
     39  O         11.9830  -34.1830  -21.4300 O.2   257  GLY257     -0.2717
     40  N         12.0910  -35.9220  -20.0290 N.am  258  VAL258     -0.1965
     41  CA        13.5790  -35.9030  -19.9340 C.3   258  VAL258      0.1727
     42  C         14.1060  -37.2760  -20.3380 C.2   258  VAL258      0.2616
     43  O         13.8490  -38.2710  -19.6530 O.2   258  VAL258     -0.2715
     44  CB        14.0010  -35.5810  -18.4750 C.3   258  VAL258      0.0290
     45  CG1       15.4940  -35.5480  -18.2830 C.3   258  VAL258      0.0023
     46  CG2       13.4020  -34.2190  -18.0490 C.3   258  VAL258      0.0023
     47  N         14.8170  -37.3510  -21.4510 N.am  259  LEU259     -0.1977
     48  CA        15.5290  -38.5620  -21.8410 C.3   259  LEU259      0.1596
     49  C         16.5940  -38.7520  -20.7830 C.2   259  LEU259      0.2287
     50  O         17.3280  -37.8250  -20.4930 O.2   259  LEU259     -0.2864
     51  CB        16.2250  -38.3100  -23.1900 C.3   259  LEU259      0.0297
     52  CG        16.7450  -39.4530  -24.1110 C.3   259  LEU259      0.0022
     53  CD1       18.1750  -39.2410  -24.6390 C.3   259  LEU259      0.0001
     54  CD2       16.3290  -40.8940  -23.8010 C.3   259  LEU259      0.0001
     55  N         19.6460  -33.9800  -30.2290 N.3   296  LEU296     -0.1231
     56  CA        18.9510  -34.2640  -28.9690 C.3   296  LEU296      0.1693
     57  C         17.8320  -33.2970  -28.6160 C.2   296  LEU296      0.2592
     58  O         17.0230  -33.6150  -27.7260 O.2   296  LEU296     -0.2718
     59  CB        19.9610  -34.2890  -27.8030 C.3   296  LEU296      0.0284
     60  CG        20.9290  -35.4810  -27.7820 C.3   296  LEU296      0.0019
     61  CD1       22.0840  -35.0790  -26.9020 C.3   296  LEU296      0.0001
     62  CD2       20.2350  -36.7180  -27.2230 C.3   296  LEU296      0.0001
     63  N         17.8000  -32.1320  -29.2650 N.am  297  GLY297     -0.1957
     64  CA        16.9140  -31.0180  -28.8680 C.3   297  GLY297      0.1869
     65  C         17.6220  -30.2770  -27.7370 C.2   297  GLY297      0.2309
     66  O         18.8460  -30.1280  -27.7890 O.2   297  GLY297     -0.2863
@<TRIPOS>BOND
     1     4     3    2
     2     1     2    1
     3     3     2    1
     4     2     5    1
     5    55    56    1
     6     5     6    1
     7    63    64    1
     8    63    57   am
     9     6     7    1
    10    56    57    1
    11    56    59    1
    12     7     8    1
    13    64    65    1
    14     9     8    1
    15    57    58    2
    16    35    33   ar
    17    59    60    1
    18    66    65    2
    19    60    62    1
    20    60    61    1
    21    33    34   ar
    22    33    32    1
    23    32    31    1
    24    31    28    1
    25    53    52    1
    26    23    22    2
    27    28    29    1
    28    28    27    1
    29    19    16    1
    30    52    54    1
    31    52    51    1
    32    29    30    2
    33    22    27   am
    34    22    21    1
    35    51    48    1
    36    16    17    1
    37    16    15    1
    38    20    17   am
    39    20    21    1
    40    17    18    2
    41    21    24    1
    42    10    11    1
    43    14    11    1
    44    48    47    1
    45    48    49    1
    46    24    25    1
    47    24    26    1
    48    47    42   am
    49    39    38    2
    50    11    12    1
    51    37    38    1
    52    37    36    1
    53    38    40   am
    54    49    50    2
    55    42    41    1
    56    42    43    2
    57    40    41    1
    58    41    44    1
    59    12    13    2
    60    44    45    1
    61    44    46    1
