@<TRIPOS>MOLECULE
tmp/3csbA07.pdb
 100 95 0 0 0
SMALL
GASTEIGER

@<TRIPOS>ATOM
      1  N         31.4360  -58.5320  -16.7220 N.3     1  THR1       -0.1218
      2  CA        32.1620  -57.5700  -15.8280 C.3     1  THR1        0.1862
      3  C         33.3910  -56.9350  -16.5050 C.2     1  THR1        0.2287
      4  O         34.0290  -56.0330  -15.9370 O.2     1  THR1       -0.2866
      5  CB        32.5270  -58.2070  -14.4380 C.3     1  THR1        0.1770
      6  OG1       33.2510  -57.2640  -13.6250 O.3     1  THR1       -0.2211
      7  CG2       33.3500  -59.4970  -14.6090 C.3     1  THR1        0.0375
      8  N         33.1160  -55.1430  -19.2190 N.3     3  LYS3       -0.1245
      9  CA        32.5300  -54.2970  -20.2780 C.3     3  LYS3        0.1561
     10  C         31.2890  -53.4860  -19.8800 C.2     3  LYS3        0.2260
     11  O         30.8210  -53.5800  -18.7430 O.2     3  LYS3       -0.2867
     12  CB        32.1960  -55.1700  -21.4860 C.3     3  LYS3        0.0271
     13  CG        31.1490  -56.2340  -21.2220 C.3     3  LYS3        0.0035
     14  CD        30.7750  -56.9550  -22.5060 C.3     3  LYS3        0.0206
     15  CE        30.0260  -58.2520  -22.2150 C.3     3  LYS3        0.1093
     16  NZ        30.9430  -59.3760  -21.8880 N.3     3  LYS3       -0.1314
     17  N         27.3900  -52.6600  -21.5540 N.3     5  VAL5       -0.1245
     18  CA        26.3800  -52.8250  -22.5930 C.3     5  VAL5        0.1561
     19  C         25.3730  -51.6790  -22.3830 C.2     5  VAL5        0.2260
     20  O         24.8950  -51.4790  -21.2800 O.2     5  VAL5       -0.2867
     21  CB        25.7220  -54.1980  -22.5310 C.3     5  VAL5        0.0252
     22  CG1       24.5930  -54.3070  -23.5310 C.3     5  VAL5        0.0019
     23  CG2       26.8060  -55.3320  -22.8020 C.3     5  VAL5        0.0019
     24  N         16.5840  -57.7060  -17.2270 N.3    48  ALA48      -0.1245
     25  CA        17.5120  -56.9380  -16.3940 C.3    48  ALA48       0.1562
     26  C         18.4970  -57.8080  -15.5730 C.2    48  ALA48       0.2260
     27  O         19.7220  -57.7630  -15.8000 O.2    48  ALA48      -0.2867
     28  CB        16.7490  -55.9680  -15.4950 C.3    48  ALA48       0.0290
     29  N         19.6390  -61.5350  -14.6500 N.3    50  THR50      -0.1203
     30  CA        20.8470  -60.8290  -15.0450 C.3    50  THR50       0.1994
     31  C         20.9990  -61.0470  -16.5450 C.2    50  THR50       0.2618
     32  O         20.7360  -60.1390  -17.3360 O.2    50  THR50      -0.2717
     33  CB        22.0990  -61.3420  -14.2640 C.3    50  THR50       0.1784
     34  OG1       21.8340  -61.3060  -12.8540 O.3    50  THR50      -0.2211
     35  CG2       23.3500  -60.4980  -14.5650 C.3    50  THR50       0.0376
     36  N         21.4000  -62.2610  -16.9290 N.am   51  GLY51      -0.1942
     37  CA        21.6500  -62.6190  -18.3280 C.3    51  GLY51       0.2014
     38  C         22.1690  -61.4590  -19.1630 C.2    51  GLY51       0.2639
     39  O         23.1170  -60.7700  -18.7640 O.2    51  GLY51      -0.2714
     40  N         21.5430  -61.2380  -20.3200 N.am   52  ASP52      -0.1957
     41  CA        21.9240  -60.1180  -21.1610 C.3    52  ASP52       0.1840
     42  C         20.9230  -58.9580  -21.1940 C.2    52  ASP52       0.2623
     43  O         20.3070  -58.6500  -22.2200 O.2    52  ASP52      -0.2715
     44  CB        22.3940  -60.5670  -22.5460 C.3    52  ASP52       0.1450
     45  CG        23.9010  -60.7480  -22.6070 C.2    52  ASP52       0.3671
     46  OD1       24.5420  -60.7720  -21.5280 O.co2  52  ASP52      -0.2456
     47  OD2       24.4500  -60.8520  -23.7270 O.co2  52  ASP52      -0.2456
     48  N         20.7740  -58.3550  -20.0190 N.am   53  GLY53      -0.1940
     49  CA        20.2290  -57.0090  -19.8430 C.3    53  GLY53       0.1998
     50  C         21.3990  -56.0460  -19.9450 C.2    53  GLY53       0.2481
     51  O         22.5630  -56.4800  -19.8460 O.2    53  GLY53      -0.2729
     52  N         21.1200  -54.7430  -20.1730 N.am   54  PRO54      -0.2715
     53  CA        22.1980  -53.7920  -20.3220 C.3    54  PRO54       0.1536
     54  C         22.7390  -53.3520  -18.9590 C.2    54  PRO54       0.2598
     55  O         22.0600  -53.5010  -17.9570 O.2    54  PRO54      -0.2715
     56  CB        21.5130  -52.6080  -21.0160 C.3    54  PRO54       0.0310
     57  CG        20.1010  -52.6350  -20.4910 C.3    54  PRO54       0.0237
     58  CD        19.7890  -54.1120  -20.2830 C.3    54  PRO54       0.0939
     59  N         23.9300  -52.7780  -18.9320 N.am   55  ASP55      -0.1972
     60  CA        24.3950  -52.0540  -17.7570 C.3    55  ASP55       0.1709
     61  C         23.6900  -50.7050  -17.6260 C.2    55  ASP55       0.2293
     62  O         23.4200  -50.2690  -16.5130 O.2    55  ASP55      -0.2864
     63  CB        25.8990  -51.8080  -17.8360 C.3    55  ASP55       0.1436
     64  CG        26.6990  -53.1270  -17.8480 C.2    55  ASP55       0.3671
     65  OD1       26.8180  -53.7570  -16.7720 O.co2  55  ASP55      -0.2456
     66  OD2       27.1800  -53.5120  -18.9310 O.co2  55  ASP55      -0.2456
     67  N         21.4340  -50.3210  -14.4250 N.3   264  ASN264     -0.1240
     68  CA        20.8060  -51.5790  -14.0270 C.3   264  ASN264      0.1653
     69  C         21.2370  -51.9310  -12.5890 C.2   264  ASN264      0.2266
     70  O         22.4310  -51.9280  -12.2730 O.2   264  ASN264     -0.2867
     71  CB        21.2560  -52.6570  -15.0230 C.3   264  ASN264      0.1155
     72  CG        20.5250  -53.9930  -14.8620 C.2   264  ASN264      0.2627
     73  OD1       19.9450  -54.2800  -13.8230 O.2   264  ASN264     -0.2716
     74  ND2       20.5760  -54.8200  -15.9110 N.am  264  ASN264     -0.0877
     75  N         21.2540  -54.7110  -11.1800 N.3   266  ALA266     -0.1231
     76  CA        21.9430  -55.9980  -11.1570 C.3   266  ALA266      0.1694
     77  C         23.2870  -55.9210  -11.8760 C.2   266  ALA266      0.2593
     78  O         23.9760  -56.9320  -12.0320 O.2   266  ALA266     -0.2718
     79  CB        21.0590  -57.0590  -11.7950 C.3   266  ALA266      0.0304
     80  N         23.6670  -54.7390  -12.3600 N.am  267  SER267     -0.1939
     81  CA        24.9530  -54.6300  -13.0750 C.3   267  SER267      0.2040
     82  C         26.1380  -54.7780  -12.1090 C.2   267  SER267      0.2485
     83  O         26.1100  -54.1920  -11.0410 O.2   267  SER267     -0.2729
     84  CB        25.0670  -53.3000  -13.8130 C.3   267  SER267      0.2129
     85  OG        26.4060  -53.0380  -14.2260 O.3   267  SER267     -0.2179
     86  N         27.1860  -55.5580  -12.4940 N.am  268  PRO268     -0.2715
     87  CA        28.4080  -55.6230  -11.7090 C.3   268  PRO268      0.1536
     88  C         29.3730  -54.4890  -12.0730 C.2   268  PRO268      0.2598
     89  O         30.5140  -54.4960  -11.6100 O.2   268  PRO268     -0.2715
     90  CB        29.0180  -56.9530  -12.1420 C.3   268  PRO268      0.0310
     91  CG        28.5850  -57.1260  -13.5210 C.3   268  PRO268      0.0237
     92  CD        27.2620  -56.4380  -13.6730 C.3   268  PRO268      0.0939
     93  N         28.9190  -53.5340  -12.9020 N.am  269  ASN269     -0.1973
     94  CA        29.8030  -52.5330  -13.4980 C.3   269  ASN269      0.1688
     95  C         29.3870  -51.1150  -13.1450 C.2   269  ASN269      0.2292
     96  O         29.6530  -50.1720  -13.8870 O.2   269  ASN269     -0.2864
     97  CB        29.8250  -52.7040  -15.0260 C.3   269  ASN269      0.1181
     98  CG        30.3720  -54.0460  -15.4440 C.2   269  ASN269      0.2629
     99  OD1       31.5250  -54.3800  -15.1290 O.2   269  ASN269     -0.2716
    100  ND2       29.5510  -54.8400  -16.1250 N.am  269  ASN269     -0.0877
@<TRIPOS>BOND
     1    47    45   ar
     2    22    21    1
     3    23    21    1
     4    45    44    1
     5    45    46   ar
     6    18    21    1
     7    18    19    1
     8    18    17    1
     9    44    41    1
    10    14    15    1
    11    14    13    1
    12    19    20    2
    13    43    42    2
    14    15    16    1
    15    12    13    1
    16    12     9    1
    17    42    41    1
    18    42    48   am
    19    41    40    1
    20    56    57    1
    21    56    53    1
    22    57    58    1
    23    53    52    1
    24    53    54    1
    25    40    38   am
    26    58    52    1
    27     9    10    1
    28     9     8    1
    29    52    50   am
    30    48    49    1
    31    50    51    2
    32    50    49    1
    33    10    11    2
    34    38    39    2
    35    38    37    1
    36    54    59   am
    37    54    55    2
    38    59    60    1
    39    66    64   ar
    40    37    36    1
    41    64    63    1
    42    64    65   ar
    43    63    60    1
    44    60    61    1
    45    61    62    2
    46    32    31    2
    47    24    25    1
    48    36    31   am
    49     1     2    1
    50    31    30    1
    51     3     4    2
    52     3     2    1
    53    25    26    1
    54    25    28    1
    55   100    98   am
    56    74    72   am
    57     2     5    1
    58    27    26    2
    59    98    99    2
    60    98    97    1
    61    30    29    1
    62    30    33    1
    63    97    94    1
    64    71    72    1
    65    71    68    1
    66    72    73    2
    67     7     5    1
    68    35    33    1
    69     5     6    1
    70    67    68    1
    71    33    34    1
    72    85    84    1
    73    68    69    1
    74    96    95    2
    75    84    81    1
    76    92    91    1
    77    92    86    1
    78    91    90    1
    79    94    95    1
    80    94    93    1
    81    81    80    1
    82    81    82    1
    83    93    88   am
    84    69    70    2
    85    86    82   am
    86    86    87    1
    87    80    77   am
    88    90    87    1
    89    82    83    2
    90    88    87    1
    91    88    89    2
    92    78    77    2
    93    77    76    1
    94    79    76    1
    95    75    76    1
