@<TRIPOS>MOLECULE
tmp/3csbA06.pdb
 77 72 0 0 0
SMALL
GASTEIGER

@<TRIPOS>ATOM
      1  N         11.9950  -48.4100  -11.2360 N.3    68  ALA68      -0.1231
      2  CA        12.4200  -48.2120   -9.8490 C.3    68  ALA68       0.1694
      3  C         11.5020  -48.9260   -8.8420 C.2    68  ALA68       0.2591
      4  O         11.9960  -49.5720   -7.9300 O.2    68  ALA68      -0.2718
      5  CB        12.5730  -46.7160   -9.5020 C.3    68  ALA68       0.0304
      6  N         10.1850  -48.8120   -9.0030 N.am   69  GLN69      -0.1979
      7  CA         9.2240  -49.5440   -8.1550 C.3    69  GLN69       0.1601
      8  C          9.5560  -51.0540   -8.1240 C.2    69  GLN69       0.2287
      9  O          9.3390  -51.7220   -7.1100 O.2    69  GLN69      -0.2864
     10  CB         7.7700  -49.3250   -8.6470 C.3    69  GLN69       0.0394
     11  CG         6.6510  -49.7950   -7.6520 C.3    69  GLN69       0.0908
     12  CD         5.2220  -49.6650   -8.2120 C.2    69  GLN69       0.2608
     13  OE1        4.9970  -49.0400   -9.2490 O.2    69  GLN69      -0.2717
     14  NE2        4.2490  -50.2920   -7.5240 N.am   69  GLN69      -0.0878
     15  N         12.5450  -52.3530   -8.3740 N.3    71  GLY71      -0.1225
     16  CA        13.9240  -52.5210   -7.9390 C.3    71  GLY71       0.1811
     17  C         14.9440  -52.7910   -9.0300 C.2    71  GLY71       0.2280
     18  O         15.9760  -53.4220   -8.7700 O.2    71  GLY71      -0.2866
     19  N         16.5460  -50.3980  -10.9370 N.3    73  LEU73      -0.1231
     20  CA        17.5160  -49.3240  -11.0950 C.3    73  LEU73       0.1693
     21  C         18.3100  -49.0600   -9.8450 C.2    73  LEU73       0.2592
     22  O         17.7650  -49.0230   -8.7500 O.2    73  LEU73      -0.2718
     23  CB        16.8480  -48.0260  -11.5860 C.3    73  LEU73       0.0284
     24  CG        16.1500  -48.1320  -12.9560 C.3    73  LEU73       0.0019
     25  CD1       15.4020  -46.8320  -13.2320 C.3    73  LEU73       0.0001
     26  CD2       17.1880  -48.4140  -14.0760 C.3    73  LEU73       0.0001
     27  N         19.6100  -48.8590  -10.0360 N.am   74  ALA74      -0.1966
     28  CA        20.4960  -48.4950   -8.9570 C.3    74  ALA74       0.1728
     29  C         20.2380  -47.0440   -8.5760 C.2    74  ALA74       0.2616
     30  O         19.8680  -46.2220   -9.4450 O.2    74  ALA74      -0.2715
     31  CB        21.9290  -48.6590   -9.4200 C.3    74  ALA74       0.0334
     32  N         20.3980  -46.7310   -7.2910 N.am   75  GLU75      -0.1977
     33  CA        20.3830  -45.3480   -6.8340 C.3    75  GLU75       0.1602
     34  C         21.7030  -44.7800   -7.3060 C.2    75  GLU75       0.2287
     35  O         22.7330  -45.4200   -7.1370 O.2    75  GLU75      -0.2864
     36  CB        20.2760  -45.2550   -5.3040 C.3    75  GLU75       0.0415
     37  CG        20.4130  -43.8020   -4.7870 C.3    75  GLU75       0.1163
     38  CD        20.2060  -43.6610   -3.2750 C.2    75  GLU75       0.3649
     39  OE1       20.3180  -44.6850   -2.5650 O.co2  75  GLU75      -0.2457
     40  OE2       19.9620  -42.5140   -2.8030 O.co2  75  GLU75      -0.2457
     41  N         12.7880  -41.1590   -7.6680 N.3    96  TYR96      -0.1227
     42  CA        11.6760  -42.0260   -7.3070 C.3    96  TYR96       0.1736
     43  C         11.7200  -42.2780   -5.8240 C.2    96  TYR96       0.2595
     44  O         12.7100  -42.7620   -5.2870 O.2    96  TYR96      -0.2718
     45  CB        11.6950  -43.3470   -8.0710 C.3    96  TYR96       0.0548
     46  CG        10.3460  -44.0460   -8.0520 C.ar   96  TYR96      -0.0200
     47  CD1       10.1230  -45.1820   -7.2630 C.ar   96  TYR96      -0.0009
     48  CD2        9.2860  -43.5470   -8.8020 C.ar   96  TYR96      -0.0009
     49  CE1        8.8770  -45.8160   -7.2560 C.ar   96  TYR96       0.0417
     50  CE2        8.0520  -44.1670   -8.8060 C.ar   96  TYR96       0.0417
     51  CZ         7.8530  -45.2930   -8.0380 C.ar   96  TYR96       0.1957
     52  OH         6.5990  -45.8550   -8.0930 O.3    96  TYR96      -0.2866
     53  N         10.6580  -41.8660   -5.1440 N.am   97  ASN97      -0.1974
     54  CA        10.6630  -41.8760   -3.6810 C.3    97  ASN97       0.1688
     55  C         11.8570  -41.1970   -3.0390 C.2    97  ASN97       0.2292
     56  O         12.4590  -41.7120   -2.0680 O.2    97  ASN97      -0.2864
     57  CB        10.4890  -43.2880   -3.1720 C.3    97  ASN97       0.1181
     58  CG         9.0400  -43.6100   -2.9410 C.2    97  ASN97       0.2629
     59  OD1        8.4100  -44.3620   -3.7090 O.2    97  ASN97      -0.2716
     60  ND2        8.4720  -42.9930   -1.9040 N.am   97  ASN97      -0.0877
     61  N         14.8210  -40.7200   -4.0590 N.3    99  LYS99      -0.1245
     62  CA        16.1550  -41.2170   -4.4550 C.3    99  LYS99       0.1561
     63  C         16.4000  -41.0160   -5.9590 C.2    99  LYS99       0.2260
     64  O         15.5050  -41.2530   -6.7790 O.2    99  LYS99      -0.2867
     65  CB        16.2600  -42.7030   -4.0990 C.3    99  LYS99       0.0271
     66  CG        16.1940  -42.9620   -2.5490 C.3    99  LYS99       0.0035
     67  CD        16.7310  -44.3480   -2.1590 C.3    99  LYS99       0.0206
     68  CE        15.6090  -45.3490   -1.9430 C.3    99  LYS99       0.1093
     69  NZ        14.8620  -45.6860   -3.1890 N.3    99  LYS99      -0.1314
     70  N         17.5530  -41.9310   -9.4670 N.3   101  ILE101     -0.1245
     71  CA        17.6540  -43.2100  -10.1570 C.3   101  ILE101      0.1561
     72  C         18.1070  -43.1490  -11.6370 C.2   101  ILE101      0.2260
     73  O         18.1090  -44.1560  -12.3440 O.2   101  ILE101     -0.2867
     74  CB        16.3800  -44.0990   -9.9600 C.3   101  ILE101      0.0252
     75  CG1       15.0830  -43.3330  -10.2780 C.3   101  ILE101      0.0019
     76  CG2       16.3220  -44.5980   -8.4780 C.3   101  ILE101      0.0019
     77  CD1       14.9390  -42.8790  -11.7370 C.3   101  ILE101      0.0001
@<TRIPOS>BOND
     1    26    24    1
     2    25    24    1
     3    24    23    1
     4    73    72    2
     5    77    75    1
     6    72    71    1
     7    23    20    1
     8     1     2    1
     9    20    19    1
    10    20    21    1
    11    75    74    1
    12    71    74    1
    13    71    70    1
    14    27    21   am
    15    27    28    1
    16    74    76    1
    17     2     5    1
    18     2     3    1
    19    21    22    2
    20    30    29    2
    21    31    28    1
    22    13    12    2
    23    17    18    2
    24    17    16    1
    25     6     3   am
    26     6     7    1
    27    28    29    1
    28     3     4    2
    29    50    48   ar
    30    50    51   ar
    31    48    46   ar
    32    10     7    1
    33    10    11    1
    34    29    32   am
    35    15    16    1
    36    12    11    1
    37    12    14   am
    38     7     8    1
    39     8     9    2
    40    52    51    1
    41    45    46    1
    42    45    42    1
    43    46    47   ar
    44    51    49   ar
    45    41    42    1
    46    42    43    1
    47    34    35    2
    48    34    33    1
    49    32    33    1
    50    47    49   ar
    51    33    36    1
    52    64    63    2
    53    63    62    1
    54    43    44    2
    55    43    53   am
    56    36    37    1
    57    53    54    1
    58    37    38    1
    59    62    65    1
    60    62    61    1
    61    65    66    1
    62    59    58    2
    63    54    57    1
    64    54    55    1
    65    38    40   ar
    66    38    39   ar
    67    69    68    1
    68    57    58    1
    69    55    56    2
    70    58    60   am
    71    66    67    1
    72    67    68    1
