@<TRIPOS>MOLECULE
tmp/3csbA00.pdb
 104 103 0 0 0
SMALL
GASTEIGER

@<TRIPOS>ATOM
      1  N         12.4560  -32.1750  -23.3530 N.3   108  GLU108     -0.1245
      2  CA        11.4960  -31.7980  -24.3890 C.3   108  GLU108      0.1567
      3  C         10.2580  -31.1660  -23.7580 C.2   108  GLU108      0.2260
      4  O          9.8460  -31.5780  -22.7060 O.2   108  GLU108     -0.2867
      5  CB        11.0940  -33.0310  -25.2020 C.3   108  GLU108      0.0388
      6  CG        10.7620  -32.7430  -26.6540 C.3   108  GLU108      0.1160
      7  CD        10.7110  -33.9960  -27.5080 C.2   108  GLU108      0.3649
      8  OE1        9.9480  -34.9150  -27.1330 O.co2 108  GLU108     -0.2457
      9  OE2       11.4060  -34.0720  -28.5550 O.co2 108  GLU108     -0.2457
     10  N          9.6240  -30.3920  -30.5970 N.3   226  PRO226     -0.2102
     11  CA        10.7820  -30.4190  -31.5140 C.3   226  PRO226      0.1504
     12  C         10.7360  -31.4980  -32.5760 C.2   226  PRO226      0.2575
     13  O         11.3180  -31.3020  -33.6640 O.2   226  PRO226     -0.2718
     14  CB        11.9940  -30.6090  -30.5950 C.3   226  PRO226      0.0282
     15  CG        11.5680  -30.0060  -29.2490 C.3   226  PRO226      0.0208
     16  CD        10.0390  -30.4270  -29.1770 C.3   226  PRO226      0.0893
     17  N         10.0400  -32.5930  -32.2740 N.am  227  TRP227     -0.1977
     18  CA         9.8010  -33.7010  -33.2270 C.3   227  TRP227      0.1640
     19  C          9.0580  -33.2250  -34.4860 C.2   227  TRP227      0.2290
     20  O          9.0860  -33.9040  -35.5260 O.2   227  TRP227     -0.2864
     21  CB         8.9900  -34.8050  -32.5330 C.3   227  TRP227      0.0576
     22  CG         7.6240  -34.3400  -32.0310 C.ar  227  TRP227      0.0006
     23  CD1        6.4770  -34.2200  -32.7590 C.ar  227  TRP227      0.0946
     24  CD2        7.2980  -33.9150  -30.7100 C.ar  227  TRP227      0.0152
     25  NE1        5.4520  -33.7670  -31.9610 N.ar  227  TRP227     -0.2442
     26  CE2        5.9360  -33.5490  -30.7090 C.ar  227  TRP227      0.0810
     27  CE3        8.0360  -33.7690  -29.5270 C.ar  227  TRP227      0.0012
     28  CZ2        5.2820  -33.1070  -29.5630 C.ar  227  TRP227      0.0191
     29  CZ3        7.3810  -33.3150  -28.3920 C.ar  227  TRP227      0.0001
     30  CH2        6.0260  -32.9830  -28.4270 C.ar  227  TRP227      0.0015
     31  N          9.6460  -30.1460  -36.0370 N.3   229  TRP229     -0.1227
     32  CA        10.3240  -29.1040  -36.8030 C.3   229  TRP229      0.1737
     33  C         10.7700  -29.5520  -38.2100 C.2   229  TRP229      0.2596
     34  O         10.6670  -28.7830  -39.1540 O.2   229  TRP229     -0.2718
     35  CB        11.5330  -28.5060  -36.0590 C.3   229  TRP229      0.0564
     36  CG        11.2070  -27.8970  -34.6980 C.ar  229  TRP229      0.0003
     37  CD1        9.9560  -27.5270  -34.2030 C.ar  229  TRP229      0.0946
     38  CD2       12.1450  -27.6470  -33.6600 C.ar  229  TRP229      0.0152
     39  NE1       10.1080  -27.0530  -32.9040 N.ar  229  TRP229     -0.2442
     40  CE2       11.4290  -27.1340  -32.5510 C.ar  229  TRP229      0.0810
     41  CE3       13.5440  -27.8070  -33.5560 C.ar  229  TRP229      0.0012
     42  CZ2       12.0540  -26.7950  -31.3600 C.ar  229  TRP229      0.0191
     43  CZ3       14.1570  -27.5010  -32.3520 C.ar  229  TRP229      0.0001
     44  CH2       13.4080  -26.9780  -31.2770 C.ar  229  TRP229      0.0015
     45  N         11.2940  -30.7670  -38.3520 N.am  230  SER230     -0.1952
     46  CA        11.8050  -31.1830  -39.6610 C.3   230  SER230      0.1924
     47  C         10.6650  -31.3390  -40.6570 C.2   230  SER230      0.2314
     48  O         10.8340  -31.0770  -41.8240 O.2   230  SER230     -0.2863
     49  CB        12.6620  -32.4350  -39.5600 C.3   230  SER230      0.2116
     50  OG        13.5860  -32.2830  -38.5030 O.3   230  SER230     -0.2180
     51  N         10.0110  -27.8990  -41.8450 N.3   233  ASP233     -0.1239
     52  CA        11.1190  -27.5570  -42.7520 C.3   233  ASP233      0.1674
     53  C         10.7850  -28.0040  -44.1610 C.2   233  ASP233      0.2266
     54  O         11.1820  -27.3660  -45.0990 O.2   233  ASP233     -0.2867
     55  CB        12.4590  -28.2300  -42.3440 C.3   233  ASP233      0.1410
     56  CG        13.0320  -27.6800  -41.0260 C.2   233  ASP233      0.3668
     57  OD1       12.7010  -26.5300  -40.6540 O.co2 233  ASP233     -0.2456
     58  OD2       13.8470  -28.3890  -40.3850 O.co2 233  ASP233     -0.2456
     59  N         19.9970  -35.0710  -33.6000 N.3   295  PRO295     -0.2102
     60  CA        19.9060  -33.9560  -32.6530 C.3   295  PRO295      0.1504
     61  C         19.1620  -34.4010  -31.3900 C.2   295  PRO295      0.2576
     62  O         18.1610  -35.1130  -31.4820 O.2   295  PRO295     -0.2718
     63  CB        19.0890  -32.9000  -33.3980 C.3   295  PRO295      0.0282
     64  CG        19.1670  -33.2800  -34.8720 C.3   295  PRO295      0.0208
     65  CD        19.4220  -34.7430  -34.9320 C.3   295  PRO295      0.0893
     66  N         19.6460  -33.9800  -30.2290 N.am  296  LEU296     -0.1966
     67  CA        18.9510  -34.2640  -28.9690 C.3   296  LEU296      0.1728
     68  C         17.8320  -33.2970  -28.6160 C.2   296  LEU296      0.2616
     69  O         17.0230  -33.6150  -27.7260 O.2   296  LEU296     -0.2715
     70  CB        19.9610  -34.2890  -27.8030 C.3   296  LEU296      0.0311
     71  CG        20.9290  -35.4810  -27.7820 C.3   296  LEU296      0.0022
     72  CD1       22.0840  -35.0790  -26.9020 C.3   296  LEU296      0.0001
     73  CD2       20.2350  -36.7180  -27.2230 C.3   296  LEU296      0.0001
     74  N         17.8000  -32.1320  -29.2650 N.am  297  GLY297     -0.1955
     75  CA        16.9140  -31.0180  -28.8680 C.3   297  GLY297      0.1869
     76  C         17.6220  -30.2770  -27.7370 C.2   297  GLY297      0.2309
     77  O         18.8460  -30.1280  -27.7890 O.2   297  GLY297     -0.2863
     78  N         20.4390  -21.5770  -31.2640 N.3   311  ASP311     -0.1239
     79  CA        19.2280  -21.9000  -32.0550 C.3   311  ASP311      0.1674
     80  C         18.0620  -21.5380  -31.1230 C.2   311  ASP311      0.2266
     81  O         17.8450  -22.2220  -30.1240 O.2   311  ASP311     -0.2867
     82  CB        19.2430  -23.4360  -32.4090 C.3   311  ASP311      0.1410
     83  CG        18.0370  -23.8970  -33.2730 C.2   311  ASP311      0.3668
     84  OD1       17.0180  -23.2070  -33.3460 O.co2 311  ASP311     -0.2456
     85  OD2       18.0900  -24.9930  -33.8850 O.co2 311  ASP311     -0.2456
     86  N         14.9580  -21.8710  -31.3560 N.3   313  ARG313     -0.1231
     87  CA        13.9520  -22.9210  -31.2300 C.3   313  ARG313      0.1694
     88  C         14.2910  -23.8590  -30.0760 C.2   313  ARG313      0.2591
     89  O         13.4040  -24.3720  -29.3950 O.2   313  ARG313     -0.2718
     90  CB        13.8370  -23.7120  -32.5340 C.3   313  ARG313      0.0321
     91  CG        13.9630  -22.8640  -33.7890 C.3   313  ARG313      0.0489
     92  CD        14.9700  -23.4590  -34.7590 C.3   313  ARG313      0.2205
     93  NE        14.3820  -24.5120  -35.5820 N.pl3 313  ARG313     -0.0865
     94  CZ        15.0450  -25.5770  -36.0190 C.cat 313  ARG313      0.5346
     95  NH1       16.3260  -25.7350  -35.7130 N.pl3 313  ARG313      0.1354
     96  NH2       14.4290  -26.4850  -36.7630 N.pl3 313  ARG313      0.1354
     97  N         15.5850  -24.0760  -29.8670 N.am  314  ILE314     -0.1980
     98  CA        16.0820  -24.8400  -28.6950 C.3   314  ILE314      0.1595
     99  C         15.9960  -24.0030  -27.4180 C.2   314  ILE314      0.2287
    100  O         15.5360  -24.4900  -26.3660 O.2   314  ILE314     -0.2864
    101  CB        17.5120  -25.4340  -28.9360 C.3   314  ILE314      0.0276
    102  CG1       17.4630  -26.4920  -30.0660 C.3   314  ILE314      0.0022
    103  CG2       18.0400  -26.1380  -27.6920 C.3   314  ILE314      0.0022
    104  CD1       18.8540  -27.0640  -30.4590 C.3   314  ILE314      0.0001
@<TRIPOS>BOND
     1    54    53    2
     2    53    52    1
     3    52    55    1
     4    52    51    1
     5    55    56    1
     6    48    47    2
     7    56    57   ar
     8    56    58   ar
     9    47    46    1
    10    46    49    1
    11    46    45    1
    12    49    50    1
    13    34    33    2
    14    45    33   am
    15    33    32    1
    16    32    35    1
    17    32    31    1
    18    96    94    1
    19    35    36    1
    20    94    95    1
    21    94    93    2
    22    93    92    1
    23    20    19    2
    24    65    64    1
    25    65    59    1
    26    64    63    1
    27    92    91    1
    28    36    37   ar
    29    36    38   ar
    30    19    18    1
    31    37    39   ar
    32    85    83   ar
    33    91    90    1
    34    13    12    2
    35    38    41   ar
    36    38    40   ar
    37    59    60    1
    38    41    43   ar
    39    63    60    1
    40    84    83   ar
    41    83    82    1
    42    18    21    1
    43    18    17    1
    44    39    40   ar
    45    23    22   ar
    46    23    25   ar
    47    60    61    1
    48    12    17   am
    49    12    11    1
    50    40    42   ar
    51    90    87    1
    52    21    22    1
    53    82    79    1
    54    43    44   ar
    55    79    78    1
    56    79    80    1
    57    22    24   ar
    58    25    26   ar
    59    11    10    1
    60    11    14    1
    61    62    61    2
    62    61    66   am
    63    42    44   ar
    64    86    87    1
    65    87    88    1
    66    80    81    2
    67    24    26   ar
    68    24    27   ar
    69    26    28   ar
    70    10    16    1
    71    14    15    1
    72   104   102    1
    73    66    67    1
    74    88    97   am
    75    88    89    2
    76   102   101    1
    77    97    98    1
    78    28    30   ar
    79    27    29   ar
    80    74    75    1
    81    74    68   am
    82    15    16    1
    83    67    68    1
    84    67    70    1
    85   101    98    1
    86   101   103    1
    87    75    76    1
    88    98    99    1
    89    68    69    2
    90     9     7   ar
    91    30    29   ar
    92    70    71    1
    93    77    76    2
    94    71    73    1
    95    71    72    1
    96     7     8   ar
    97     7     6    1
    98    99   100    2
    99     6     5    1
   100     5     2    1
   101     2     3    1
   102     2     1    1
   103     3     4    2
