@<TRIPOS>MOLECULE
tmp/3csbA01.pdb
 101 101 0 0 0
SMALL
GASTEIGER

@<TRIPOS>ATOM
      1  N          9.6900  -41.0710  -17.7470 N.3    62  ASP62      -0.1225
      2  CA         8.3870  -41.4940  -17.2070 C.3    62  ASP62       0.1805
      3  C          8.2960  -43.0220  -17.0350 C.2    62  ASP62       0.2597
      4  O          7.5080  -43.4930  -16.2250 O.2    62  ASP62      -0.2718
      5  CB         7.2310  -40.9360  -18.0640 C.3    62  ASP62       0.1424
      6  CG         7.2720  -41.4240  -19.4690 C.2    62  ASP62       0.3668
      7  OD1        7.6710  -40.6710  -20.3600 O.co2  62  ASP62      -0.2456
      8  OD2        6.8830  -42.5740  -19.7210 O.co2  62  ASP62      -0.2456
      9  N          9.1060  -43.7940  -17.7520 N.am   63  ARG63      -0.1979
     10  CA         9.1130  -45.2850  -17.5710 C.3    63  ARG63       0.1597
     11  C          9.9660  -45.7160  -16.4030 C.2    63  ARG63       0.2287
     12  O          9.8270  -46.8380  -15.8890 O.2    63  ARG63      -0.2864
     13  CB         9.6560  -45.9970  -18.8320 C.3    63  ARG63       0.0334
     14  CG         8.7950  -45.8500  -20.0460 C.3    63  ARG63       0.0492
     15  CD         7.3620  -46.3940  -19.7990 C.3    63  ARG63       0.2205
     16  NE         6.4560  -45.2940  -19.4300 N.pl3  63  ARG63      -0.0865
     17  CZ         5.2060  -45.4680  -18.9880 C.cat  63  ARG63       0.5346
     18  NH1        4.6840  -46.7020  -18.9040 N.pl3  63  ARG63       0.1354
     19  NH2        4.4590  -44.4050  -18.6680 N.pl3  63  ARG63       0.1354
     20  N          8.2780  -46.9250  -12.9620 N.3    66  GLY66      -0.1225
     21  CA         7.9640  -48.3660  -12.9300 C.3    66  GLY66       0.1811
     22  C          9.1940  -49.2510  -12.7320 C.2    66  GLY66       0.2280
     23  O          9.1760  -50.1980  -11.9140 O.2    66  GLY66      -0.2866
     24  N          6.7180  -34.3220  -16.2060 N.3   327  MET327     -0.1231
     25  CA         5.7870  -35.4180  -16.2970 C.3   327  MET327      0.1687
     26  C          5.9570  -36.3600  -15.1050 C.2   327  MET327      0.2434
     27  O          7.0720  -36.8320  -14.8800 O.2   327  MET327     -0.2733
     28  CB         6.0510  -36.1700  -17.6040 C.3   327  MET327      0.0400
     29  CG         5.1540  -37.3640  -17.7820 C.3   327  MET327      0.0596
     30  SD         3.4920  -36.8420  -18.2180 S.3   327  MET327     -0.1393
     31  CE         3.8790  -36.4800  -19.9770 C.3   327  MET327      0.0692
     32  N          4.8840  -36.5860  -14.2820 N.am  328  PRO328     -0.2718
     33  CA         4.9870  -37.4750  -13.1320 C.3   328  PRO328      0.1535
     34  C          5.3670  -38.9000  -13.5500 C.2   328  PRO328      0.2599
     35  O          4.8620  -39.3850  -14.5520 O.2   328  PRO328     -0.2715
     36  CB         3.5470  -37.4630  -12.5570 C.3   328  PRO328      0.0310
     37  CG         3.0670  -36.0120  -12.8560 C.3   328  PRO328      0.0237
     38  CD         3.5600  -35.9090  -14.3230 C.3   328  PRO328      0.0939
     39  N          6.2410  -39.5540  -12.7990 N.am  329  ASN329     -0.1959
     40  CA         6.6670  -40.9010  -13.1830 C.3   329  ASN329      0.1819
     41  C          5.9810  -41.9720  -12.3460 C.2   329  ASN329      0.2621
     42  O          6.4850  -43.0700  -12.2160 O.2   329  ASN329     -0.2715
     43  CB         8.1900  -41.0340  -13.0560 C.3   329  ASN329      0.1195
     44  CG         8.6870  -40.7600  -11.6270 C.2   329  ASN329      0.2630
     45  OD1        7.9010  -40.4430  -10.7270 O.2   329  ASN329     -0.2716
     46  ND2        9.9890  -40.8480  -11.4280 N.am  329  ASN329     -0.0877
     47  N          4.8600  -41.6280  -11.7260 N.am  330  ILE330     -0.1964
     48  CA         4.1400  -42.5810  -10.8700 C.3   330  ILE330      0.1712
     49  C          2.9940  -43.2800  -11.6170 C.2   330  ILE330      0.2458
     50  O          2.4610  -42.7550  -12.6070 O.2   330  ILE330     -0.2730
     51  CB         3.6490  -41.8850   -9.6010 C.3   330  ILE330      0.0289
     52  CG1        2.7060  -40.7160  -10.0040 C.3   330  ILE330      0.0022
     53  CG2        4.8720  -41.4130   -8.8200 C.3   330  ILE330      0.0023
     54  CD1        2.0550  -40.0100   -8.8700 C.3   330  ILE330      0.0001
     55  N          2.6390  -44.5000  -11.1580 N.am  331  PRO331     -0.2727
     56  CA         1.6610  -45.3010  -11.8900 C.3   331  PRO331      0.1402
     57  C          0.2850  -44.6390  -11.9740 C.2   331  PRO331      0.2269
     58  O         -0.4460  -44.8820  -12.9220 O.2   331  PRO331     -0.2865
     59  CB         1.5660  -46.6040  -11.0760 C.3   331  PRO331      0.0296
     60  CG         2.6990  -46.6030  -10.1360 C.3   331  PRO331      0.0237
     61  CD         3.1720  -45.1880   -9.9610 C.3   331  PRO331      0.0939
     62  N         -0.4810  -41.7290  -12.6730 N.3   333  MET333     -0.1230
     63  CA        -0.5710  -40.8690  -13.8450 C.3   333  MET333      0.1702
     64  C         -1.3030  -41.5550  -14.9970 C.2   333  MET333      0.2593
     65  O         -1.8920  -40.9000  -15.8920 O.2   333  MET333     -0.2718
     66  CB         0.8600  -40.3710  -14.2600 C.3   333  MET333      0.0401
     67  CG         0.8520  -39.2340  -15.2790 C.3   333  MET333      0.0596
     68  SD         0.1410  -37.7670  -14.5890 S.3   333  MET333     -0.1393
     69  CE         0.0160  -36.8060  -16.0790 C.3   333  MET333      0.0692
     70  N         -1.3490  -42.8840  -14.9800 N.am  334  SER334     -0.1952
     71  CA        -2.0480  -43.5810  -16.0630 C.3   334  SER334      0.1924
     72  C         -3.5070  -43.1280  -16.2120 C.2   334  SER334      0.2314
     73  O         -3.9830  -42.9480  -17.3390 O.2   334  SER334     -0.2863
     74  CB        -1.9820  -45.0900  -15.8590 C.3   334  SER334      0.2116
     75  OG        -2.5060  -45.3840  -14.5570 O.3   334  SER334     -0.2180
     76  N         -4.8210  -39.4350  -18.2780 N.3   337  TRP337     -0.1227
     77  CA        -4.9810  -39.1540  -19.6960 C.3   337  TRP337      0.1737
     78  C         -6.4390  -39.2740  -20.1680 C.2   337  TRP337      0.2595
     79  O         -6.9840  -38.3530  -20.7710 O.2   337  TRP337     -0.2718
     80  CB        -4.0380  -40.0270  -20.5500 C.3   337  TRP337      0.0564
     81  CG        -2.6100  -39.8040  -20.1710 C.ar  337  TRP337      0.0003
     82  CD1       -1.7870  -40.6950  -19.5480 C.ar  337  TRP337      0.0946
     83  CD2       -1.8520  -38.5850  -20.3220 C.ar  337  TRP337      0.0152
     84  NE1       -0.5590  -40.1100  -19.3140 N.ar  337  TRP337     -0.2442
     85  CE2       -0.5700  -38.8180  -19.7830 C.ar  337  TRP337      0.0810
     86  CE3       -2.1440  -37.3080  -20.8430 C.ar  337  TRP337      0.0012
     87  CZ2        0.4370  -37.8280  -19.7640 C.ar  337  TRP337      0.0191
     88  CZ3       -1.1490  -36.3310  -20.8280 C.ar  337  TRP337      0.0001
     89  CH2        0.1250  -36.5950  -20.2960 C.ar  337  TRP337      0.0015
     90  N         -7.0670  -40.4110  -19.8610 N.am  338  TYR338     -0.1976
     91  CA        -8.4590  -40.6310  -20.2720 C.3   338  TYR338      0.1639
     92  C         -9.4000  -39.7420  -19.4680 C.2   338  TYR338      0.2290
     93  O        -10.3680  -39.2420  -20.0110 O.2   338  TYR338     -0.2864
     94  CB        -8.8010  -42.1260  -20.1440 C.3   338  TYR338      0.0560
     95  CG       -10.0440  -42.5390  -20.8920 C.ar  338  TYR338     -0.0198
     96  CD1      -11.2720  -42.6640  -20.2300 C.ar  338  TYR338     -0.0009
     97  CD2       -9.9930  -42.8060  -22.2650 C.ar  338  TYR338     -0.0009
     98  CE1      -12.4360  -43.0840  -20.9270 C.ar  338  TYR338      0.0417
     99  CE2      -11.1290  -43.2160  -22.9610 C.ar  338  TYR338      0.0417
    100  CZ       -12.3400  -43.3520  -22.2840 C.ar  338  TYR338      0.1957
    101  OH       -13.4390  -43.7290  -23.0070 O.3   338  TYR338     -0.2866
@<TRIPOS>BOND
     1   101   100    1
     2    99   100   ar
     3    99    97   ar
     4   100    98   ar
     5    97    95   ar
     6    98    96   ar
     7    95    96   ar
     8    95    94    1
     9    86    88   ar
    10    86    83   ar
    11    88    89   ar
    12    79    78    2
    13    80    81    1
    14    80    77    1
    15     7     6   ar
    16    83    81   ar
    17    83    85   ar
    18    89    87   ar
    19    91    94    1
    20    91    90    1
    21    91    92    1
    22    81    82   ar
    23    78    90   am
    24    78    77    1
    25    14    15    1
    26    14    13    1
    27    93    92    2
    28    31    30    1
    29    15    16    1
    30    85    87   ar
    31    85    84   ar
    32     8     6   ar
    33    77    76    1
    34    82    84   ar
    35     6     5    1
    36    16    17    2
    37    17    18    1
    38    17    19    1
    39    13    10    1
    40    30    29    1
    41     5     2    1
    42    29    28    1
    43     9    10    1
    44     9     3   am
    45     1     2    1
    46    28    25    1
    47    10    11    1
    48    73    72    2
    49     2     3    1
    50     3     4    2
    51    11    12    2
    52    25    24    1
    53    25    26    1
    54    72    71    1
    55    69    68    1
    56    71    74    1
    57    71    70    1
    58    65    64    2
    59    74    75    1
    60    67    68    1
    61    67    66    1
    62    26    27    2
    63    26    32   am
    64    64    70   am
    65    64    63    1
    66    35    34    2
    67    38    32    1
    68    38    37    1
    69    32    33    1
    70    66    63    1
    71    63    62    1
    72    34    33    1
    73    34    39   am
    74    40    43    1
    75    40    39    1
    76    40    41    1
    77    33    36    1
    78    43    44    1
    79    20    21    1
    80    21    22    1
    81    58    57    2
    82    37    36    1
    83    22    23    2
    84    50    49    2
    85    41    42    2
    86    41    47   am
    87    57    56    1
    88    56    55    1
    89    56    59    1
    90    47    48    1
    91    44    46   am
    92    44    45    2
    93    49    55   am
    94    49    48    1
    95    55    61    1
    96    59    60    1
    97    48    51    1
    98    60    61    1
    99    52    51    1
   100    52    54    1
   101    51    53    1
