@<TRIPOS>MOLECULE
tmp/3cseB01.pdb
 168 163 0 0 0
SMALL
GASTEIGER

@<TRIPOS>ATOM
      1  N         32.3240    3.6060   28.0230 N.3     7  ILE7       -0.1231
      2  CA        32.9930    3.6680   29.3720 C.3     7  ILE7        0.1692
      3  C         31.8800    3.3400   30.3010 C.2     7  ILE7        0.2592
      4  O         30.7580    3.8770   30.1600 O.2     7  ILE7       -0.2718
      5  CB        33.6610    5.0900   29.6680 C.3     7  ILE7        0.0266
      6  CG1       34.2230    5.0990   31.0840 C.3     7  ILE7        0.0019
      7  CG2       32.7710    6.2790   29.4710 C.3     7  ILE7        0.0020
      8  CD1       35.2060    6.2260   31.3070 C.3     7  ILE7        0.0001
      9  N         32.1930    2.4650   31.3050 N.am    8  VAL8       -0.1966
     10  CA        31.0600    1.9840   32.1730 C.3     8  VAL8        0.1727
     11  C         31.7220    1.3610   33.4090 C.2     8  VAL8        0.2616
     12  O         32.8940    1.0400   33.4060 O.2     8  VAL8       -0.2715
     13  CB        30.3060    0.7920   31.4280 C.3     8  VAL8        0.0290
     14  CG1       31.2470   -0.4350   31.0040 C.3     8  VAL8        0.0023
     15  CG2       28.9800    0.2880   32.1940 C.3     8  VAL8        0.0023
     16  N         30.9580    1.4030   34.4780 N.am    9  ALA9       -0.1977
     17  CA        31.3360    0.6980   35.7600 C.3     9  ALA9        0.1597
     18  C         30.3600   -0.4330   36.0050 C.2     9  ALA9        0.2287
     19  O         29.1660   -0.2480   36.0170 O.2     9  ALA9       -0.2864
     20  CB        31.2260    1.6790   36.9520 C.3     9  ALA9        0.0319
     21  N         16.6790    2.5950   37.4550 N.3    21  GLY21      -0.1210
     22  CA        17.0890    3.8880   36.8880 C.3    21  GLY21       0.1956
     23  C         18.2360    4.6700   37.4430 C.2    21  GLY21       0.2612
     24  O         18.6250    5.7370   36.8720 O.2    21  GLY21      -0.2717
     25  N         18.8460    4.1510   38.5410 N.am   22  ASN22      -0.1960
     26  CA        19.9930    4.7200   39.1760 C.3    22  ASN22       0.1819
     27  C         21.1460    3.7560   39.2310 C.2    22  ASN22       0.2621
     28  O         21.0250    2.5800   38.8720 O.2    22  ASN22      -0.2715
     29  CB        19.6930    5.2260   40.5790 C.3    22  ASN22       0.1195
     30  CG        18.5880    6.2480   40.5650 C.2    22  ASN22       0.2630
     31  OD1       18.7540    7.3670   40.0510 O.2    22  ASN22      -0.2716
     32  ND2       17.4680    5.8760   41.1750 N.am   22  ASN22      -0.0877
     33  N         22.2650    4.2200   39.7060 N.am   23  LEU23      -0.1977
     34  CA        23.4690    3.3770   39.8500 C.3    23  LEU23       0.1596
     35  C         23.2410    2.5140   41.1300 C.2    23  LEU23       0.2287
     36  O         22.5590    2.9910   42.0960 O.2    23  LEU23      -0.2864
     37  CB        24.7250    4.1650   40.1450 C.3    23  LEU23       0.0297
     38  CG        25.0770    5.1230   38.9790 C.3    23  LEU23       0.0022
     39  CD1       26.2570    6.0540   39.4290 C.3    23  LEU23       0.0001
     40  CD2       25.5340    4.3000   37.6580 C.3    23  LEU23       0.0001
     41  N         25.4780    1.9090   43.4140 N.3    25  TRP25      -0.1241
     42  CA        26.5230    2.2130   44.3870 C.3    25  TRP25       0.1605
     43  C         26.7780    3.7190   44.2370 C.2    25  TRP25       0.2264
     44  O         26.3130    4.3340   43.2710 O.2    25  TRP25      -0.2867
     45  CB        27.8280    1.4540   44.1950 C.3    25  TRP25       0.0550
     46  CG        28.1770    1.4730   42.7180 C.ar   25  TRP25       0.0003
     47  CD1       28.8010    2.5080   42.0770 C.ar   25  TRP25       0.0946
     48  CD2       27.9820    0.4290   41.7740 C.ar   25  TRP25       0.0152
     49  NE1       28.9330    2.2030   40.7380 N.ar   25  TRP25      -0.2442
     50  CE2       28.4490    0.9310   40.5120 C.ar   25  TRP25       0.0810
     51  CE3       27.4350   -0.8290   41.8240 C.ar   25  TRP25       0.0012
     52  CZ2       28.2840    0.1860   39.3150 C.ar   25  TRP25       0.0191
     53  CZ3       27.3630   -1.5910   40.6490 C.ar   25  TRP25       0.0001
     54  CH2       27.7920   -1.0630   39.4360 C.ar   25  TRP25       0.0015
     55  N         35.3260    6.4860   41.8840 N.3    30  GLU30      -0.1231
     56  CA        34.9150    5.9040   40.5680 C.3    30  GLU30       0.1699
     57  C         34.3830    7.1010   39.7450 C.2    30  GLU30       0.2592
     58  O         34.8310    7.2380   38.5580 O.2    30  GLU30      -0.2718
     59  CB        33.7900    4.8550   40.6260 C.3    30  GLU30       0.0402
     60  CG        34.0130    3.8510   39.4280 C.3    30  GLU30       0.1161
     61  CD        33.5570    4.3810   38.1070 C.2    30  GLU30       0.3649
     62  OE1       32.5170    5.0410   38.0950 O.co2  30  GLU30      -0.2457
     63  OE2       34.2980    4.0720   37.1750 O.co2  30  GLU30      -0.2457
     64  N         33.5320    7.9330   40.3280 N.am   31  MET31      -0.1979
     65  CA        32.9860    9.1520   39.6180 C.3    31  MET31       0.1605
     66  C         34.1930   10.0180   39.2290 C.2    31  MET31       0.2287
     67  O         34.2010   10.6590   38.1480 O.2    31  MET31      -0.2864
     68  CB        31.9640    9.8820   40.5170 C.3    31  MET31       0.0413
     69  CG        31.5320   11.1970   39.9260 C.3    31  MET31       0.0598
     70  SD        30.8360   10.7800   38.2870 S.3    31  MET31      -0.1393
     71  CE        29.2210   10.5160   39.0420 C.3    31  MET31       0.0692
     72  N         37.2920    9.2110   38.5440 N.3    33  TYR33      -0.1227
     73  CA        37.9010    8.6220   37.3410 C.3    33  TYR33       0.1736
     74  C         37.0700    8.9400   36.0680 C.2    33  TYR33       0.2595
     75  O         37.6290    9.3860   34.9870 O.2    33  TYR33      -0.2718
     76  CB        38.0010    7.0870   37.5470 C.3    33  TYR33       0.0548
     77  CG        38.6330    6.3640   36.3790 C.ar   33  TYR33      -0.0200
     78  CD1       37.7850    5.6790   35.5040 C.ar   33  TYR33      -0.0009
     79  CD2       39.9970    6.2930   36.1430 C.ar   33  TYR33      -0.0009
     80  CE1       38.2660    4.9510   34.3910 C.ar   33  TYR33       0.0417
     81  CE2       40.5670    5.4430   35.1270 C.ar   33  TYR33       0.0417
     82  CZ        39.6560    4.8130   34.1950 C.ar   33  TYR33       0.1957
     83  OH        40.1680    4.0010   33.2070 O.3    33  TYR33      -0.2866
     84  N         35.7870    8.6830   36.1840 N.am   34  PHE34      -0.1976
     85  CA        34.9260    8.8780   35.0000 C.3    34  PHE34       0.1639
     86  C         35.0230   10.3580   34.5770 C.2    34  PHE34       0.2290
     87  O         35.1650   10.6370   33.3470 O.2    34  PHE34      -0.2864
     88  CB        33.5150    8.6080   35.3970 C.3    34  PHE34       0.0560
     89  CG        32.5360    9.0550   34.3720 C.ar   34  PHE34      -0.0200
     90  CD1       31.8090   10.2860   34.6060 C.ar   34  PHE34      -0.0042
     91  CD2       32.3600    8.3420   33.1320 C.ar   34  PHE34      -0.0042
     92  CE1       30.8320   10.7740   33.6780 C.ar   34  PHE34      -0.0003
     93  CE2       31.4070    8.8260   32.2180 C.ar   34  PHE34      -0.0003
     94  CZ        30.6850   10.0240   32.4850 C.ar   34  PHE34      -0.0000
     95  N         19.4840    7.7000   30.8980 N.3    56  THR56      -0.1274
     96  CA        20.7230    8.0820   31.6080 C.3    56  THR56       0.1548
     97  C         20.7510    9.5830   31.8630 C.3    56  THR56       0.2036
     98  O         21.0500   10.0310   33.0300 O.3    56  THR56      -0.2187
     99  CB        21.9480    7.5480   30.9250 C.3    56  THR56       0.1721
    100  OG1       21.9280    6.0750   31.0280 O.3    56  THR56      -0.2215
    101  CG2       23.2440    8.1220   31.6490 C.3    56  THR56       0.0371
    102  N         18.5650   10.6620   34.6270 N.3    59  SER59      -0.1202
    103  CA        19.0940   10.2290   35.9480 C.3    59  SER59       0.2020
    104  C         20.2270   11.0650   36.5580 C.2    59  SER59       0.2619
    105  O         20.5870   10.9140   37.7400 O.2    59  SER59      -0.2717
    106  CB        19.5090    8.7350   35.9270 C.3    59  SER59       0.2103
    107  OG        20.8180    8.5590   35.3260 O.3    59  SER59      -0.2182
    108  N         20.8940   11.8940   35.7610 N.am   60  ILE60      -0.1966
    109  CA        22.0170   12.6980   36.2030 C.3    60  ILE60       0.1712
    110  C         21.4120   13.8840   36.9770 C.2    60  ILE60       0.2458
    111  O         20.4840   14.5190   36.5300 O.2    60  ILE60      -0.2730
    112  CB        22.8300   13.2800   35.0070 C.3    60  ILE60       0.0289
    113  CG1       23.4750   12.0780   34.3130 C.3    60  ILE60       0.0022
    114  CG2       23.9330   14.1650   35.5340 C.3    60  ILE60       0.0023
    115  CD1       24.1610   12.6420   32.9720 C.3    60  ILE60       0.0001
    116  N         21.9640   14.1290   38.2020 N.am   61  PRO61      -0.2727
    117  CA        21.4460   15.2940   38.9700 C.3    61  PRO61       0.1402
    118  C         21.4090   16.5630   38.1580 C.2    61  PRO61       0.2269
    119  O         22.3930   16.8670   37.4650 O.2    61  PRO61      -0.2865
    120  CB        22.5080   15.4540   40.0490 C.3    61  PRO61       0.0296
    121  CG        22.8630   13.9970   40.4380 C.3    61  PRO61       0.0237
    122  CD        23.0360   13.4520   38.9170 C.3    61  PRO61       0.0939
    123  N         24.1150   18.9080   37.8420 N.3    64  PHE64      -0.1241
    124  CA        25.3760   18.3660   37.3140 C.3    64  PHE64       0.1605
    125  C         25.3160   18.1460   35.8190 C.2    64  PHE64       0.2264
    126  O         26.2710   17.6190   35.2850 O.2    64  PHE64      -0.2867
    127  CB        25.7090   17.0050   38.0000 C.3    64  PHE64       0.0534
    128  CG        26.0710   17.0680   39.4470 C.ar   64  PHE64      -0.0203
    129  CD1       26.3580   18.2660   40.0780 C.ar   64  PHE64      -0.0042
    130  CD2       26.0550   15.8610   40.2170 C.ar   64  PHE64      -0.0042
    131  CE1       26.6840   18.2860   41.5320 C.ar   64  PHE64      -0.0003
    132  CE2       26.4260   15.8810   41.6320 C.ar   64  PHE64      -0.0003
    133  CZ        26.7100   17.1270   42.2510 C.ar   64  PHE64      -0.0000
    134  N         27.1440   17.6260   31.5190 N.3    67  LEU67      -0.1245
    135  CA        28.4150   17.4210   32.1230 C.3    67  LEU67       0.1561
    136  C         29.3890   18.4780   31.6120 C.2    67  LEU67       0.2260
    137  O         29.5970   18.6050   30.4120 O.2    67  LEU67      -0.2867
    138  CB        28.9290   16.0380   31.7340 C.3    67  LEU67       0.0270
    139  CG        27.9660   14.9480   32.2430 C.3    67  LEU67       0.0019
    140  CD1       28.5350   13.5100   31.7310 C.3    67  LEU67       0.0001
    141  CD2       27.7160   14.9200   33.7460 C.3    67  LEU67       0.0001
    142  N         28.5250    6.8540   27.2180 N.3   119  ILE119     -0.1245
    143  CA        28.5020    6.7860   28.7170 C.3   119  ILE119      0.1561
    144  C         27.2920    6.1980   29.3010 C.2   119  ILE119      0.2260
    145  O         27.1170    6.2350   30.5250 O.2   119  ILE119     -0.2867
    146  CB        28.7960    8.2210   29.2720 C.3   119  ILE119      0.0252
    147  CG1       27.5240    9.0740   29.1000 C.3   119  ILE119      0.0019
    148  CG2       30.0700    8.8090   28.6860 C.3   119  ILE119      0.0019
    149  CD1       27.6330   10.2290   30.0740 C.3   119  ILE119      0.0001
    150  N         24.4800    0.7460   25.5590 N.3   125  TYR125     -0.1241
    151  CA        25.6610   -0.1210   25.4810 C.3   125  TYR125      0.1605
    152  C         25.4220   -1.4160   24.6710 C.2   125  TYR125      0.2264
    153  O         26.3340   -1.8850   24.0000 O.2   125  TYR125     -0.2867
    154  CB        25.9450   -0.6070   26.8910 C.3   125  TYR125      0.0534
    155  CG        26.5410    0.4590   27.8040 C.ar  125  TYR125     -0.0201
    156  CD1       27.5130    1.4460   27.3710 C.ar  125  TYR125     -0.0009
    157  CD2       26.1480    0.5150   29.1880 C.ar  125  TYR125     -0.0009
    158  CE1       28.0610    2.4140   28.3470 C.ar  125  TYR125      0.0417
    159  CE2       26.6560    1.4640   30.1330 C.ar  125  TYR125      0.0417
    160  CZ        27.6590    2.3810   29.7050 C.ar  125  TYR125      0.1957
    161  OH        28.1200    3.2030   30.6280 O.3   125  TYR125     -0.2866
    162  N         35.2240   -0.2550   34.5250 N.3   138  THR138     -0.1218
    163  CA        35.6590   -0.3220   35.9850 C.3   138  THR138      0.1862
    164  C         34.9460   -1.5910   36.4800 C.2   138  THR138      0.2287
    165  O         33.7190   -1.6470   36.5690 O.2   138  THR138     -0.2866
    166  CB        35.1720    0.8770   36.7260 C.3   138  THR138      0.1770
    167  OG1       35.7230    2.0870   36.1200 O.3   138  THR138     -0.2211
    168  CG2       35.7560    0.7990   38.1420 C.3   138  THR138      0.0375
@<TRIPOS>BOND
     1   153   152    2
     2   152   151    1
     3   151   150    1
     4   151   154    1
     5   154   155    1
     6   142   143    1
     7   156   155   ar
     8   156   158   ar
     9   155   157   ar
    10     1     2    1
    11   158   160   ar
    12   148   146    1
    13   143   146    1
    14   143   144    1
    15   147   146    1
    16   147   149    1
    17   157   159   ar
    18   144   145    2
    19     2     5    1
    20     2     3    1
    21     7     5    1
    22     5     6    1
    23   160   159   ar
    24   160   161    1
    25     4     3    2
    26     3     9   am
    27   137   136    2
    28    95    96    1
    29    99   100    1
    30    99    96    1
    31    99   101    1
    32    14    13    1
    33     6     8    1
    34     9    10    1
    35    13    10    1
    36    13    15    1
    37   134   135    1
    38    96    97    1
    39   136   135    1
    40   140   139    1
    41   138   135    1
    42   138   139    1
    43    97    98    1
    44    10    11    1
    45    93    94   ar
    46    93    91   ar
    47   139   141    1
    48    94    92   ar
    49   115   113    1
    50    91    89   ar
    51    83    82    1
    52    87    86    2
    53    12    11    2
    54    11    16   am
    55    92    90   ar
    56    82    80   ar
    57    82    81   ar
    58   113   112    1
    59    89    90   ar
    60    89    88    1
    61    80    78   ar
    62    16    17    1
    63   162   163    1
    64    86    85    1
    65   102   103    1
    66    75    74    2
    67    85    88    1
    68    85    84    1
    69   112   114    1
    70   112   109    1
    71    81    79   ar
    72   126   125    2
    73   107   106    1
    74    78    77   ar
    75    17    18    1
    76    17    20    1
    77   108   109    1
    78   108   104   am
    79   125   124    1
    80   106   103    1
    81   103   104    1
    82   163   164    1
    83   163   166    1
    84    18    19    2
    85    74    84   am
    86    74    73    1
    87   167   166    1
    88    79    77   ar
    89   109   110    1
    90    77    76    1
    91   164   165    2
    92   111   110    2
    93   104   105    2
    94   166   168    1
    95    24    23    2
    96    22    23    1
    97    22    21    1
    98   110   116   am
    99    63    61   ar
   100   124   123    1
   101   124   127    1
   102    73    76    1
   103    73    72    1
   104    23    25   am
   105   119   118    2
   106    40    38    1
   107   127   128    1
   108    62    61   ar
   109    61    60    1
   110    67    66    2
   111   118   117    1
   112   116   122    1
   113   116   117    1
   114    70    71    1
   115    70    69    1
   116    25    26    1
   117    58    57    2
   118    28    27    2
   119   122   121    1
   120   117   120    1
   121    38    39    1
   122    38    37    1
   123    26    27    1
   124    26    29    1
   125    66    65    1
   126    27    33   am
   127    52    54   ar
   128    52    50   ar
   129    60    59    1
   130    54    53   ar
   131   128   129   ar
   132   128   130   ar
   133    65    64    1
   134    65    68    1
   135    33    34    1
   136    57    64   am
   137    57    56    1
   138    34    37    1
   139    34    35    1
   140    69    68    1
   141   120   121    1
   142    31    30    2
   143   129   131   ar
   144   130   132   ar
   145    50    49   ar
   146    50    48   ar
   147    30    29    1
   148    30    32   am
   149    56    59    1
   150    56    55    1
   151    53    51   ar
   152    49    47   ar
   153    35    36    2
   154   131   133   ar
   155   132   133   ar
   156    48    51   ar
   157    48    46   ar
   158    47    46   ar
   159    46    45    1
   160    44    43    2
   161    41    42    1
   162    45    42    1
   163    43    42    1
