@<TRIPOS>MOLECULE
tmp/3csfA00.pdb
 189 182 0 0 0
SMALL
GASTEIGER

@<TRIPOS>ATOM
      1  N         47.7370   17.0030   40.8560 N.3   567  MET567     -0.1230
      2  CA        47.5050   18.0010   39.8320 C.3   567  MET567      0.1702
      3  C         46.6600   19.1760   40.3180 C.2   567  MET567      0.2592
      4  O         45.7730   19.0240   41.1560 O.2   567  MET567     -0.2718
      5  CB        46.8540   17.3390   38.6130 C.3   567  MET567      0.0401
      6  CG        47.6640   16.1740   38.0170 C.3   567  MET567      0.0596
      7  SD        47.0160   15.5750   36.4330 S.3   567  MET567     -0.1393
      8  CE        46.1370   14.2790   36.9450 C.3   567  MET567      0.0692
      9  N         46.9580   20.3540   39.7840 N.am  568  ALA568     -0.1966
     10  CA        46.2380   21.5680   40.1400 C.3   568  ALA568      0.1728
     11  C         45.0200   21.7290   39.2390 C.2   568  ALA568      0.2616
     12  O         45.0550   22.4730   38.2590 O.2   568  ALA568     -0.2715
     13  CB        47.1570   22.7810   39.9980 C.3   568  ALA568      0.0334
     14  N         43.9480   21.0220   39.5710 N.am  569  SER569     -0.1950
     15  CA        42.7120   21.0960   38.7980 C.3   569  SER569      0.1924
     16  C         41.5340   20.9650   39.7670 C.2   569  SER569      0.2314
     17  O         41.7440   20.6370   40.9330 O.2   569  SER569     -0.2863
     18  CB        42.6780   19.9850   37.7350 C.3   569  SER569      0.2116
     19  OG        42.9450   18.7150   38.3060 O.3   569  SER569     -0.2180
     20  N         43.3470   14.9030   41.0910 N.3   573  PRO573     -0.2116
     21  CA        43.8290   13.5720   40.7200 C.3   573  PRO573      0.1372
     22  C         45.3050   13.3740   40.9880 C.2   573  PRO573      0.2244
     23  O         46.0600   14.3420   41.0400 O.2   573  PRO573     -0.2868
     24  CB        43.5060   13.5050   39.2360 C.3   573  PRO573      0.0268
     25  CG        43.7190   14.9290   38.7900 C.3   573  PRO573      0.0207
     26  CD        43.0740   15.7220   39.8920 C.3   573  PRO573      0.0892
     27  N         49.0500   12.1090   39.9440 N.3   575  TRP575     -0.1241
     28  CA        49.8670   11.9940   38.7430 C.3   575  TRP575      0.1605
     29  C         50.9840   11.0720   39.1750 C.2   575  TRP575      0.2264
     30  O         51.9870   11.5340   39.7090 O.2   575  TRP575     -0.2867
     31  CB        50.4300   13.3680   38.3530 C.3   575  TRP575      0.0550
     32  CG        51.4930   13.3650   37.2700 C.ar  575  TRP575      0.0003
     33  CD1       52.7700   12.8830   37.3680 C.ar  575  TRP575      0.0946
     34  CD2       51.3590   13.8560   35.9310 C.ar  575  TRP575      0.0152
     35  NE1       53.4380   13.0380   36.1750 N.ar  575  TRP575     -0.2442
     36  CE2       52.5970   13.6350   35.2760 C.ar  575  TRP575      0.0810
     37  CE3       50.3140   14.4620   35.2170 C.ar  575  TRP575      0.0012
     38  CZ2       52.8200   14.0010   33.9440 C.ar  575  TRP575      0.0191
     39  CZ3       50.5350   14.8280   33.8880 C.ar  575  TRP575      0.0001
     40  CH2       51.7830   14.5960   33.2650 C.ar  575  TRP575      0.0015
     41  N         47.3010    8.4270   35.7500 N.3   594  ILE594     -0.1245
     42  CA        46.5600    9.4180   36.5160 C.3   594  ILE594      0.1561
     43  C         45.4160    8.7210   37.2340 C.2   594  ILE594      0.2260
     44  O         44.5840    8.0710   36.5990 O.2   594  ILE594     -0.2867
     45  CB        45.9120   10.4810   35.6000 C.3   594  ILE594      0.0252
     46  CG1       46.9740   11.3390   34.9240 C.3   594  ILE594      0.0019
     47  CG2       44.9380   11.3250   36.3940 C.3   594  ILE594      0.0019
     48  CD1       46.4040   12.2200   33.8460 C.3   594  ILE594      0.0001
     49  N         42.0810    9.2890   39.3460 N.3   596  LYS596     -0.1245
     50  CA        41.1530   10.3770   39.6370 C.3   596  LYS596      0.1561
     51  C         39.8030    9.9770   40.1900 C.2   596  LYS596      0.2260
     52  O         39.3030    8.8850   39.9300 O.2   596  LYS596     -0.2867
     53  CB        40.9370   11.2320   38.3750 C.3   596  LYS596      0.0271
     54  CG        39.7910   12.2340   38.4640 C.3   596  LYS596      0.0035
     55  CD        39.8030   13.2410   37.3140 C.3   596  LYS596      0.0206
     56  CE        39.4300   12.6410   35.9560 C.3   596  LYS596      0.1093
     57  NZ        39.6060   13.6080   34.8260 N.3   596  LYS596     -0.1314
     58  N         43.6180    7.2670   24.2430 N.3   630  TYR630     -0.1241
     59  CA        44.4260    6.8280   25.3600 C.3   630  TYR630      0.1605
     60  C         43.6730    5.8360   26.2380 C.2   630  TYR630      0.2264
     61  O         42.4270    5.7760   26.2390 O.2   630  TYR630     -0.2867
     62  CB        44.8290    8.0510   26.1830 C.3   630  TYR630      0.0534
     63  CG        43.6400    8.9090   26.5670 C.ar  630  TYR630     -0.0201
     64  CD1       42.8980    8.6290   27.7180 C.ar  630  TYR630     -0.0009
     65  CD2       43.2360    9.9870   25.7590 C.ar  630  TYR630     -0.0009
     66  CE1       41.7880    9.3940   28.0640 C.ar  630  TYR630      0.0417
     67  CE2       42.1060   10.7730   26.0930 C.ar  630  TYR630      0.0417
     68  CZ        41.3890   10.4620   27.2540 C.ar  630  TYR630      0.1957
     69  OH        40.2630   11.1630   27.6360 O.3   630  TYR630     -0.2866
     70  N         43.7190    6.6920   34.2420 N.3   642  ILE642     -0.1231
     71  CA        43.8470    7.2200   32.9020 C.3   642  ILE642      0.1692
     72  C         45.3030    7.2200   32.4790 C.2   642  ILE642      0.2592
     73  O         46.1830    7.4920   33.2820 O.2   642  ILE642     -0.2718
     74  CB        43.3080    8.6260   32.8340 C.3   642  ILE642      0.0266
     75  CG1       41.8190    8.6000   33.1710 C.3   642  ILE642      0.0019
     76  CG2       43.5400    9.1860   31.4580 C.3   642  ILE642      0.0020
     77  CD1       41.1690    9.9590   33.2820 C.3   642  ILE642      0.0001
     78  N         45.5620    6.8980   31.2190 N.am  643  GLU643     -0.1966
     79  CA        46.9260    6.8760   30.7140 C.3   643  GLU643      0.1733
     80  C         47.4460    8.3020   30.5230 C.2   643  GLU643      0.2616
     81  O         46.7120    9.1760   30.0450 O.2   643  GLU643     -0.2715
     82  CB        46.9600    6.1430   29.3860 C.3   643  GLU643      0.0429
     83  CG        48.2960    6.1520   28.7170 C.3   643  GLU643      0.1163
     84  CD        48.2030    5.7060   27.2830 C.2   643  GLU643      0.3649
     85  OE1       49.2290    5.7860   26.5850 O.co2 643  GLU643     -0.2457
     86  OE2       47.1110    5.2750   26.8430 O.co2 643  GLU643     -0.2457
     87  N         48.6990    8.5410   30.9160 N.am  644  ILE644     -0.1963
     88  CA        49.3040    9.8620   30.7560 C.3   644  ILE644      0.1727
     89  C         50.0520    9.8840   29.4280 C.2   644  ILE644      0.2616
     90  O         51.0320    9.1590   29.2440 O.2   644  ILE644     -0.2715
     91  CB        50.3290   10.1690   31.8680 C.3   644  ILE644      0.0290
     92  CG1       49.6570   10.2270   33.2380 C.3   644  ILE644      0.0022
     93  CG2       50.9950   11.4840   31.5770 C.3   644  ILE644      0.0023
     94  CD1       50.6220   10.5020   34.3890 C.3   644  ILE644      0.0001
     95  N         49.5440   10.6590   28.4760 N.am  645  VAL645     -0.1963
     96  CA        50.1970   10.7050   27.1780 C.3   645  VAL645      0.1727
     97  C         51.4600   11.5130   27.3770 C.2   645  VAL645      0.2616
     98  O         51.4310   12.5840   27.9820 O.2   645  VAL645     -0.2715
     99  CB        49.3170   11.3870   26.0850 C.3   645  VAL645      0.0290
    100  CG1       50.0770   11.4340   24.7440 C.3   645  VAL645      0.0023
    101  CG2       48.0050   10.6290   25.9160 C.3   645  VAL645      0.0023
    102  N         52.6240   11.1480   26.9450 N.am  646  LYS646     -0.1963
    103  CA        53.9030   11.8280   27.0890 C.3   646  LYS646      0.1728
    104  C         54.0420   13.0110   26.1370 C.2   646  LYS646      0.2616
    105  O         53.5480   12.9740   25.0080 O.2   646  LYS646     -0.2715
    106  CB        55.0470   10.8380   26.8340 C.3   646  LYS646      0.0311
    107  CG        55.0750    9.6190   27.7630 C.3   646  LYS646      0.0038
    108  CD        55.4070   10.0060   29.2090 C.3   646  LYS646      0.0206
    109  CE        55.3400    8.8260   30.1800 C.3   646  LYS646      0.1093
    110  NZ        55.7360    9.2340   31.5770 N.3   646  LYS646     -0.1314
    111  N         54.7180   14.0550   26.6020 N.am  647  ASP647     -0.1957
    112  CA        54.9640   15.2500   25.8010 C.3   647  ASP647      0.1840
    113  C         53.7380   15.9600   25.2390 C.2   647  ASP647      0.2622
    114  O         53.7850   16.4010   24.0990 O.2   647  ASP647     -0.2715
    115  CB        55.8840   14.9210   24.6150 C.3   647  ASP647      0.1450
    116  CG        57.2610   14.4300   25.0500 C.2   647  ASP647      0.3671
    117  OD1       57.6930   14.8440   26.1480 O.co2 647  ASP647     -0.2456
    118  OD2       57.9180   13.6560   24.2990 O.co2 647  ASP647     -0.2456
    119  N         52.6510   16.0870   25.9930 N.am  648  ALA648     -0.1963
    120  CA        51.4850   16.7880   25.4510 C.3   648  ALA648      0.1728
    121  C         51.0690   17.9070   26.4190 C.2   648  ALA648      0.2617
    122  O         51.4960   17.9030   27.5570 O.2   648  ALA648     -0.2715
    123  CB        50.3370   15.7790   25.2210 C.3   648  ALA648      0.0334
    124  N         50.3080   18.9100   25.9850 N.am  649  THR649     -0.1937
    125  CA        49.8820   19.9330   26.9600 C.3   649  THR649      0.2028
    126  C         48.4840   20.3610   26.6310 C.2   649  THR649      0.2642
    127  O         48.0060   20.1250   25.5290 O.2   649  THR649     -0.2714
    128  CB        50.7250   21.2390   26.9740 C.3   649  THR649      0.1808
    129  OG1       52.1170   20.9260   26.9700 O.3   649  THR649     -0.2208
    130  CG2       50.4080   22.0370   28.2550 C.3   649  THR649      0.0379
    131  N         47.8190   20.9980   27.5760 N.am  650  THR650     -0.1950
    132  CA        46.4850   21.4430   27.2840 C.3   650  THR650      0.1897
    133  C         46.5750   22.6670   26.3970 C.2   650  THR650      0.2313
    134  O         47.5060   23.4500   26.5060 O.2   650  THR650     -0.2863
    135  CB        45.7420   21.7860   28.5600 C.3   650  THR650      0.1794
    136  OG1       45.5780   20.5900   29.3300 O.3   650  THR650     -0.2208
    137  CG2       44.3690   22.3750   28.2300 C.3   650  THR650      0.0378
    138  N         46.5410   25.7340   28.6120 N.3   653  LYS653     -0.1245
    139  CA        47.8460   26.0200   29.2030 C.3   653  LYS653      0.1561
    140  C         48.7730   26.6970   28.2010 C.2   653  LYS653      0.2260
    141  O         49.5460   27.5740   28.5730 O.2   653  LYS653     -0.2867
    142  CB        48.4790   24.7310   29.6990 C.3   653  LYS653      0.0271
    143  CG        47.6510   24.0690   30.7380 C.3   653  LYS653      0.0035
    144  CD        48.3110   24.1510   32.0780 C.3   653  LYS653      0.0206
    145  CE        47.3700   23.5990   33.1220 C.3   653  LYS653      0.1093
    146  NZ        48.0470   23.3230   34.4080 N.3   653  LYS653     -0.1314
    147  N         40.6340   23.7310   27.8140 N.3   712  ASP712     -0.1239
    148  CA        41.3070   22.9630   28.8540 C.3   712  ASP712      0.1674
    149  C         41.0240   21.4540   28.6430 C.2   712  ASP712      0.2266
    150  O         41.7390   20.5890   29.1680 O.2   712  ASP712     -0.2867
    151  CB        40.7790   23.4110   30.2240 C.3   712  ASP712      0.1410
    152  CG        41.5540   22.8000   31.3860 C.2   712  ASP712      0.3668
    153  OD1       42.5020   22.0080   31.1460 O.co2 712  ASP712     -0.2456
    154  OD2       41.2100   23.1060   32.5490 O.co2 712  ASP712     -0.2456
    155  N         43.9320   18.5110   24.1850 N.3   715  MET715     -0.1245
    156  CA        45.3560   18.6790   24.2010 C.3   715  MET715      0.1570
    157  C         46.0410   18.4980   22.8850 C.2   715  MET715      0.2261
    158  O         45.4060   18.3030   21.8560 O.2   715  MET715     -0.2867
    159  CB        45.9220   17.7210   25.2170 C.3   715  MET715      0.0387
    160  CG        45.2550   17.8830   26.5700 C.3   715  MET715      0.0595
    161  SD        45.9690   16.7350   27.6980 S.3   715  MET715     -0.1393
    162  CE        47.6130   17.1250   27.4660 C.3   715  MET715      0.0692
    163  N         44.1920   16.0980   20.4790 N.3   723  PHE723     -0.1241
    164  CA        43.2930   15.0720   21.0200 C.3   723  PHE723      0.1605
    165  C         42.4820   15.5320   22.2090 C.2   723  PHE723      0.2264
    166  O         43.0200   16.0910   23.1580 O.2   723  PHE723     -0.2867
    167  CB        44.0570   13.7940   21.3910 C.3   723  PHE723      0.0534
    168  CG        44.9580   13.9240   22.5870 C.ar  723  PHE723     -0.0203
    169  CD1       44.5580   13.4530   23.8300 C.ar  723  PHE723     -0.0042
    170  CD2       46.2410   14.4350   22.4540 C.ar  723  PHE723     -0.0042
    171  CE1       45.4250   13.4790   24.9140 C.ar  723  PHE723     -0.0003
    172  CE2       47.1210   14.4640   23.5540 C.ar  723  PHE723     -0.0003
    173  CZ        46.7050   13.9820   24.7760 C.ar  723  PHE723     -0.0000
    174  N         39.9090   15.2920   25.5450 N.3   725  ILE725     -0.1231
    175  CA        39.9730   14.5120   26.7630 C.3   725  ILE725      0.1692
    176  C         38.7220   14.5090   27.6350 C.2   725  ILE725      0.2592
    177  O         37.6530   14.8130   27.1200 O.2   725  ILE725     -0.2718
    178  CB        41.1800   14.9450   27.6810 C.3   725  ILE725      0.0266
    179  CG1       41.1400   16.4160   28.0490 C.3   725  ILE725      0.0019
    180  CG2       42.4710   14.4990   27.0950 C.3   725  ILE725      0.0020
    181  CD1       42.3060   16.8210   29.0600 C.3   725  ILE725      0.0001
    182  N         38.8620   14.0490   28.8680 N.am  726  ASP726     -0.1974
    183  CA        37.8360   14.1650   29.8610 C.3   726  ASP726      0.1709
    184  C         36.3360   13.9530   29.6100 C.2   726  ASP726      0.2293
    185  O         35.6670   13.7830   30.6070 O.2   726  ASP726     -0.2864
    186  CB        38.1110   15.4410   30.6000 C.3   726  ASP726      0.1436
    187  CG        39.4080   15.3700   31.5040 C.2   726  ASP726      0.3671
    188  OD1       39.9870   14.2910   31.5980 O.co2 726  ASP726     -0.2456
    189  OD2       39.8190   16.4320   32.1580 O.co2 726  ASP726     -0.2456
@<TRIPOS>BOND
     1   163   164    1
     2   164   167    1
     3   164   165    1
     4   167   168    1
     5   158   157    2
     6   165   166    2
     7   170   168   ar
     8   170   172   ar
     9   168   169   ar
    10   157   156    1
    11   172   173   ar
    12   169   171   ar
    13   114   113    2
    14   155   156    1
    15   156   159    1
    16    58    59    1
    17   118   116   ar
    18   115   116    1
    19   115   112    1
    20   100    99    1
    21   173   171   ar
    22   105   104    2
    23   116   117   ar
    24   159   160    1
    25   123   120    1
    26   113   112    1
    27   113   119   am
    28    59    62    1
    29    59    60    1
    30   120   119    1
    31   120   121    1
    32   127   126    2
    33   174   175    1
    34    65    67   ar
    35    65    63   ar
    36   112   111    1
    37   101    99    1
    38   124   121   am
    39   124   125    1
    40    99    96    1
    41    67    68   ar
    42   104   111   am
    43   104   103    1
    44    62    63    1
    45    60    61    2
    46   133   134    2
    47   133   132    1
    48   121   122    2
    49    63    64   ar
    50   160   161    1
    51    85    84   ar
    52   126   125    1
    53   126   131   am
    54   175   176    1
    55   175   178    1
    56   106   103    1
    57   106   107    1
    58    86    84   ar
    59   102   103    1
    60   102    97   am
    61   125   128    1
    62   129   128    1
    63   128   130    1
    64   180   178    1
    65   177   176    2
    66    96    97    1
    67    96    95    1
    68    68    69    1
    69    68    66   ar
    70    84    83    1
    71   132   131    1
    72   132   135    1
    73    97    98    2
    74   162   161    1
    75   176   182   am
    76   178   179    1
    77    64    66   ar
    78   107   108    1
    79   147   148    1
    80   179   181    1
    81   140   141    2
    82   140   139    1
    83   137   135    1
    84    95    89   am
    85   135   136    1
    86   138   139    1
    87   149   148    1
    88   149   150    2
    89    83    82    1
    90   148   151    1
    91   182   183    1
    92   139   142    1
    93   108   109    1
    94    90    89    2
    95    82    79    1
    96    89    88    1
    97   184   183    1
    98   184   185    2
    99   142   143    1
   100   183   186    1
   101    81    80    2
   102   109   110    1
   103   151   152    1
   104    80    79    1
   105    80    87   am
   106   186   187    1
   107    79    78    1
   108   143   144    1
   109    88    87    1
   110    88    91    1
   111   153   152   ar
   112    78    72   am
   113   152   154   ar
   114    76    74    1
   115   187   188   ar
   116   187   189   ar
   117    93    91    1
   118    91    92    1
   119   144   145    1
   120    72    71    1
   121    72    73    2
   122    74    71    1
   123    74    75    1
   124    71    70    1
   125   145   146    1
   126    75    77    1
   127    92    94    1
   128    40    39   ar
   129    40    38   ar
   130    48    46    1
   131    39    37   ar
   132    38    36   ar
   133    57    56    1
   134    46    45    1
   135    37    34   ar
   136    36    34   ar
   137    36    35   ar
   138    45    47    1
   139    45    42    1
   140    41    42    1
   141    34    32   ar
   142    56    55    1
   143    35    33   ar
   144     7     8    1
   145     7     6    1
   146    42    43    1
   147    44    43    2
   148    32    33   ar
   149    32    31    1
   150    55    54    1
   151    18    19    1
   152    18    15    1
   153     6     5    1
   154    12    11    2
   155    31    28    1
   156    53    54    1
   157    53    50    1
   158     5     2    1
   159    28    29    1
   160    28    27    1
   161    25    24    1
   162    25    26    1
   163    15    14    1
   164    15    16    1
   165    29    30    2
   166    24    21    1
   167    11    14   am
   168    11    10    1
   169    49    50    1
   170    50    51    1
   171    16    17    2
   172     9    10    1
   173     9     3   am
   174     2     3    1
   175     2     1    1
   176    26    20    1
   177    52    51    2
   178    13    10    1
   179     3     4    2
   180    21    22    1
   181    21    20    1
   182    22    23    2
