@<TRIPOS>MOLECULE
tmp/3csjB01.pdb
 132 129 0 0 0
SMALL
GASTEIGER

@<TRIPOS>ATOM
      1  N         19.9840   21.7710   -0.3770 N.3     7  TYR7       -0.1227
      2  CA        18.7040   21.8310    0.3500 C.3     7  TYR7        0.1736
      3  C         17.6270   22.6280   -0.3960 C.2     7  TYR7        0.2595
      4  O         17.9250   23.3720   -1.3450 O.2     7  TYR7       -0.2718
      5  CB        18.9570   22.4590    1.7380 C.3     7  TYR7        0.0548
      6  CG        17.8930   22.2290    2.7880 C.ar    7  TYR7       -0.0200
      7  CD1       17.4910   20.9150    3.1600 C.ar    7  TYR7       -0.0009
      8  CD2       17.3100   23.3120    3.4360 C.ar    7  TYR7       -0.0009
      9  CE1       16.5180   20.7240    4.1300 C.ar    7  TYR7        0.0417
     10  CE2       16.3620   23.1260    4.4090 C.ar    7  TYR7        0.0417
     11  CZ        15.9560   21.8440    4.7460 C.ar    7  TYR7        0.1957
     12  OH        14.9920   21.7090    5.7000 O.3     7  TYR7       -0.2866
     13  N         16.3760   22.4710    0.0330 N.am    8  PHE8       -0.1963
     14  CA        15.2730   23.3040   -0.4490 C.3     8  PHE8        0.1756
     15  C         15.4710   24.7990   -0.0920 C.2     8  PHE8        0.2461
     16  O         16.3020   25.1240    0.8050 O.2     8  PHE8       -0.2730
     17  CB        13.9470   22.7470    0.0910 C.3     8  PHE8        0.0574
     18  CG        13.8150   21.2500   -0.0760 C.ar    8  PHE8       -0.0200
     19  CD1       13.6230   20.6880   -1.3530 C.ar    8  PHE8       -0.0042
     20  CD2       13.9180   20.3990    1.0310 C.ar    8  PHE8       -0.0042
     21  CE1       13.5260   19.3210   -1.5130 C.ar    8  PHE8       -0.0003
     22  CE2       13.8200   19.0220    0.8820 C.ar    8  PHE8       -0.0003
     23  CZ        13.6170   18.4840   -0.3920 C.ar    8  PHE8       -0.0000
     24  N         14.7790   25.7290   -0.8160 N.am    9  PRO9       -0.2716
     25  CA        14.8790   27.1220   -0.3600 C.3     9  PRO9        0.1536
     26  C         13.9870   27.3900    0.8490 C.2     9  PRO9        0.2598
     27  O         12.9710   28.1070    0.7590 O.2     9  PRO9       -0.2715
     28  CB        14.4470   27.9480   -1.5880 C.3     9  PRO9        0.0310
     29  CG        13.4730   27.0260   -2.3200 C.3     9  PRO9        0.0237
     30  CD        13.9560   25.6000   -2.0490 C.3     9  PRO9        0.0939
     31  N         14.3910   26.8230    1.9890 N.am   10  VAL10      -0.1978
     32  CA        13.7180   27.0310    3.2780 C.3    10  VAL10       0.1596
     33  C         14.8070   27.0080    4.3550 C.2    10  VAL10       0.2287
     34  O         15.9180   26.5160    4.1090 O.2    10  VAL10      -0.2864
     35  CB        12.5690   25.9780    3.6010 C.3    10  VAL10       0.0276
     36  CG1       11.7430   25.6170    2.3640 C.3    10  VAL10       0.0022
     37  CG2       13.1000   24.7490    4.2600 C.3    10  VAL10       0.0022
     38  N         14.2990   25.6840    7.7940 N.3    12  GLY12      -0.1210
     39  CA        14.0640   24.2750    8.2010 C.3    12  GLY12       0.1956
     40  C         15.2340   23.6970    9.0090 C.2    12  GLY12       0.2611
     41  O         15.7790   24.3700    9.9020 O.2    12  GLY12      -0.2717
     42  N         15.6250   22.4660    8.6550 N.am   13  ARG13      -0.1979
     43  CA        16.7460   21.7360    9.2590 C.3    13  ARG13       0.1597
     44  C         18.1510   22.2300    8.9030 C.2    13  ARG13       0.2287
     45  O         19.1480   21.7540    9.4610 O.2    13  ARG13      -0.2864
     46  CB        16.6140   20.2310    8.9580 C.3    13  ARG13       0.0334
     47  CG        15.5790   19.5540    9.8480 C.3    13  ARG13       0.0492
     48  CD        15.5600   18.0310    9.6620 C.3    13  ARG13       0.2205
     49  NE        14.6200   17.4000   10.5880 N.pl3  13  ARG13      -0.0865
     50  CZ        14.9190   17.0900   11.8570 C.cat  13  ARG13       0.5346
     51  NH1       16.1480   17.3070   12.3430 N.pl3  13  ARG13       0.1354
     52  NH2       14.0120   16.4920   12.6180 N.pl3  13  ARG13       0.1354
     53  N         11.3130   22.3600   -5.7570 N.3    35  VAL35      -0.1245
     54  CA        10.1970   21.4080   -5.7170 C.3    35  VAL35       0.1561
     55  C         10.1480   20.5200   -6.9800 C.2    35  VAL35       0.2260
     56  O          9.9590   19.2940   -6.8840 O.2    35  VAL35      -0.2867
     57  CB         8.8320   22.1670   -5.4460 C.3    35  VAL35       0.0252
     58  CG1        8.3010   22.8850   -6.7100 C.3    35  VAL35       0.0019
     59  CG2        7.7630   21.2380   -4.8400 C.3    35  VAL35       0.0019
     60  N         13.1870   18.0770   -7.1330 N.3    38  TRP38      -0.1241
     61  CA        13.0190   17.0260   -6.1320 C.3    38  TRP38       0.1605
     62  C         11.9880   16.0090   -6.6030 C.2    38  TRP38       0.2264
     63  O         12.2040   14.7950   -6.4790 O.2    38  TRP38      -0.2867
     64  CB        12.6110   17.6150   -4.7830 C.3    38  TRP38       0.0550
     65  CG        12.5830   16.6060   -3.6710 C.ar   38  TRP38       0.0003
     66  CD1       11.4740   16.1290   -3.0180 C.ar   38  TRP38       0.0946
     67  CD2       13.7090   15.9430   -3.0850 C.ar   38  TRP38       0.0152
     68  NE1       11.8420   15.2210   -2.0540 N.ar   38  TRP38      -0.2442
     69  CE2       13.2050   15.0820   -2.0720 C.ar   38  TRP38       0.0810
     70  CE3       15.0920   15.9990   -3.3010 C.ar   38  TRP38       0.0012
     71  CZ2       14.0380   14.2820   -1.2840 C.ar   38  TRP38       0.0191
     72  CZ3       15.9220   15.1900   -2.5200 C.ar   38  TRP38       0.0001
     73  CH2       15.3870   14.3490   -1.5210 C.ar   38  TRP38       0.0015
     74  N         17.1060   15.4680    2.1420 N.3    52  LEU52      -0.1245
     75  CA        18.0500   16.5790    2.3220 C.3    52  LEU52       0.1561
     76  C         17.9220   17.1120    3.7640 C.2    52  LEU52       0.2260
     77  O         16.8760   16.9310    4.3640 O.2    52  LEU52      -0.2867
     78  CB        17.7720   17.6930    1.2960 C.3    52  LEU52       0.0270
     79  CG        17.7680   17.2160   -0.1750 C.3    52  LEU52       0.0019
     80  CD1       17.3510   18.4020   -1.0750 C.3    52  LEU52       0.0001
     81  CD2       19.1350   16.6940   -0.5810 C.3    52  LEU52       0.0001
     82  N         12.0620   19.6190   18.1700 N.3   100  ARG100     -0.1245
     83  CA        12.0130   19.9040   16.7090 C.3   100  ARG100      0.1563
     84  C         11.0840   18.9120   15.9830 C.2   100  ARG100      0.2260
     85  O         10.2430   19.3240   15.1780 O.2   100  ARG100     -0.2867
     86  CB        13.3900   19.8690   16.0380 C.3   100  ARG100      0.0307
     87  CG        13.3590   20.4570   14.5650 C.3   100  ARG100      0.0489
     88  CD        14.7160   20.6000   13.9110 C.3   100  ARG100      0.2205
     89  NE        15.6050   21.5260   14.6170 N.pl3 100  ARG100     -0.0865
     90  CZ        15.6550   22.8510   14.4660 C.cat 100  ARG100      0.5346
     91  NH1       14.8630   23.4840   13.5950 N.pl3 100  ARG100      0.1354
     92  NH2       16.5090   23.5460   15.1880 N.pl3 100  ARG100      0.1354
     93  N          7.8160   19.9810   13.8200 N.3   104  ILE104     -0.1245
     94  CA         7.6940   19.5850   12.4080 C.3   104  ILE104      0.1561
     95  C          6.3680   18.7990   12.2060 C.2   104  ILE104      0.2260
     96  O          5.6160   19.0560   11.2700 O.2   104  ILE104     -0.2867
     97  CB         8.9530   18.7650   11.9390 C.3   104  ILE104      0.0252
     98  CG1       10.1950   19.6670   11.7750 C.3   104  ILE104      0.0019
     99  CG2        8.6920   17.9360   10.6310 C.3   104  ILE104      0.0019
    100  CD1       11.5180   18.8540   11.5760 C.3   104  ILE104      0.0001
    101  N          3.5340   20.3290    9.5500 N.3   108  TYR108     -0.1241
    102  CA         3.2460   19.6240    8.2980 C.3   108  TYR108      0.1605
    103  C          2.0440   18.6760    8.3260 C.2   108  TYR108      0.2264
    104  O          1.5310   18.2730    7.2730 O.2   108  TYR108     -0.2867
    105  CB         4.4950   18.8730    7.8070 C.3   108  TYR108      0.0534
    106  CG         5.6490   19.7470    7.3530 C.ar  108  TYR108     -0.0201
    107  CD1        5.6970   20.2790    6.0560 C.ar  108  TYR108     -0.0009
    108  CD2        6.7080   20.0320    8.2200 C.ar  108  TYR108     -0.0009
    109  CE1        6.7850   21.0890    5.6330 C.ar  108  TYR108      0.0417
    110  CE2        7.7920   20.8350    7.8200 C.ar  108  TYR108      0.0417
    111  CZ         7.8350   21.3600    6.5170 C.ar  108  TYR108      0.1957
    112  OH         8.9330   22.1350    6.1420 O.3   108  TYR108     -0.2866
    113  N          9.5590   27.0940    6.9880 N.3   204  ASN204     -0.1225
    114  CA         9.1220   25.7650    6.5610 C.3   204  ASN204      0.1785
    115  C          8.7120   25.7350    5.0820 C.2   204  ASN204      0.2598
    116  O          8.6610   26.7780    4.4330 O.2   204  ASN204     -0.2718
    117  CB         7.9640   25.2820    7.4640 C.3   204  ASN204      0.1169
    118  CG         8.3210   25.3660    8.9480 C.2   204  ASN204      0.2627
    119  OD1        7.6750   26.0880    9.7540 O.2   204  ASN204     -0.2716
    120  ND2        9.3760   24.6720    9.3110 N.am  204  ASN204     -0.0877
    121  N          8.4720   24.5410    4.5590 N.am  205  GLY205     -0.1942
    122  CA         8.1680   24.3730    3.1360 C.3   205  GLY205      0.2014
    123  C          6.7050   24.5000    2.7430 C.2   205  GLY205      0.2638
    124  O          6.3920   24.5150    1.5470 O.2   205  GLY205     -0.2714
    125  N          5.8080   24.5940    3.7160 N.am  206  ASN206     -0.1972
    126  CA         4.3620   24.6010    3.4300 C.3   206  ASN206      0.1688
    127  C          3.6700   25.9450    3.7460 C.2   206  ASN206      0.2292
    128  O          2.4530   26.0280    3.7890 O.2   206  ASN206     -0.2864
    129  CB         3.6760   23.4350    4.1720 C.3   206  ASN206      0.1181
    130  CG         3.6380   23.6370    5.6890 C.2   206  ASN206      0.2629
    131  OD1        4.3080   24.5230    6.2230 O.2   206  ASN206     -0.2716
    132  ND2        2.8500   22.8190    6.3800 N.am  206  ASN206     -0.0877
@<TRIPOS>BOND
     1    60    61    1
     2    55    56    2
     3    55    54    1
     4    58    57    1
     5    62    63    2
     6    62    61    1
     7    61    64    1
     8    53    54    1
     9    54    57    1
    10    57    59    1
    11    64    65    1
    12    65    67   ar
    13    65    66   ar
    14    70    67   ar
    15    70    72   ar
    16    67    69   ar
    17    66    68   ar
    18    72    73   ar
    19    29    30    1
    20    29    28    1
    21    69    68   ar
    22    69    71   ar
    23    30    24    1
    24    28    25    1
    25    73    71   ar
    26    21    19   ar
    27    21    23   ar
    28    19    18   ar
    29     4     3    2
    30    80    79    1
    31    24    25    1
    32    24    15   am
    33    81    79    1
    34    14    15    1
    35    14    13    1
    36    14    17    1
    37     3    13   am
    38     3     2    1
    39    23    22   ar
    40     1     2    1
    41    25    26    1
    42    79    78    1
    43    15    16    2
    44    18    17    1
    45    18    20   ar
    46     2     5    1
    47    27    26    2
    48    26    31   am
    49    22    20   ar
    50    78    75    1
    51   124   123    2
    52     5     6    1
    53    31    32    1
    54    74    75    1
    55    75    76    1
    56    36    35    1
    57   123   122    1
    58   123   125   am
    59     6     7   ar
    60     6     8   ar
    61   122   121    1
    62     7     9   ar
    63    32    35    1
    64    32    33    1
    65   126   125    1
    66   126   127    1
    67   126   129    1
    68     8    10   ar
    69    35    37    1
    70   127   128    2
    71    76    77    2
    72    34    33    2
    73     9    11   ar
    74   129   130    1
    75    10    11   ar
    76   116   115    2
    77   121   115   am
    78    11    12    1
    79   115   114    1
    80   109   107   ar
    81   109   111   ar
    82   130   131    2
    83   130   132   am
    84   107   106   ar
    85   112   111    1
    86   111   110   ar
    87   114   113    1
    88   114   117    1
    89   104   103    2
    90   106   105    1
    91   106   108   ar
    92   117   118    1
    93    38    39    1
    94   105   102    1
    95   110   108   ar
    96    39    40    1
    97   102   103    1
    98   102   101    1
    99    42    40   am
   100    42    43    1
   101    44    43    1
   102    44    45    2
   103   118   120   am
   104   118   119    2
   105    46    43    1
   106    46    47    1
   107    40    41    2
   108    48    47    1
   109    48    49    1
   110    49    50    2
   111    99    97    1
   112    96    95    2
   113   100    98    1
   114    98    97    1
   115    50    51    1
   116    50    52    1
   117    97    94    1
   118    95    94    1
   119    94    93    1
   120    91    90    1
   121    88    87    1
   122    88    89    1
   123    90    89    2
   124    90    92    1
   125    87    86    1
   126    85    84    2
   127    84    83    1
   128    86    83    1
   129    83    82    1
