@<TRIPOS>MOLECULE
tmp/3cstA00.pdb
 184 176 0 0 0
SMALL
GASTEIGER

@<TRIPOS>ATOM
      1  N         47.4730   17.1270   40.9140 N.3   567  MET567     -0.1245
      2  CA        47.1920   18.0840   39.8730 C.3   567  MET567      0.1570
      3  C         46.3750   19.2870   40.3380 C.2   567  MET567      0.2261
      4  O         45.4760   19.1630   41.1680 O.2   567  MET567     -0.2867
      5  CB        46.4750   17.3520   38.7490 C.3   567  MET567      0.0387
      6  CG        47.2130   16.1080   38.2170 C.3   567  MET567      0.0595
      7  SD        46.7030   15.7400   36.4930 S.3   567  MET567     -0.1393
      8  CE        45.6640   14.4300   36.7430 C.3   567  MET567      0.0692
      9  N         43.7220   21.1140   39.5890 N.3   569  SER569     -0.1217
     10  CA        42.4680   21.1650   38.8370 C.3   569  SER569      0.1889
     11  C         41.2620   21.0650   39.7650 C.2   569  SER569      0.2288
     12  O         41.4110   20.8340   40.9650 O.2   569  SER569     -0.2866
     13  CB        42.4060   20.0480   37.7700 C.3   569  SER569      0.2089
     14  OG        42.6880   18.7660   38.3050 O.3   569  SER569     -0.2183
     15  N         43.2090   14.8890   41.1580 N.3   573  PRO573     -0.2116
     16  CA        43.7290   13.6050   40.6740 C.3   573  PRO573      0.1372
     17  C         45.2220   13.4270   40.8320 C.2   573  PRO573      0.2244
     18  O         45.9810   14.3820   40.6160 O.2   573  PRO573     -0.2868
     19  CB        43.3580   13.6360   39.2080 C.3   573  PRO573      0.0268
     20  CG        43.7000   15.0620   38.8650 C.3   573  PRO573      0.0207
     21  CD        43.0560   15.8230   40.0290 C.3   573  PRO573      0.0892
     22  N         49.0320   12.2910   39.9410 N.3   575  TRP575     -0.1241
     23  CA        49.7860   12.1520   38.7130 C.3   575  TRP575      0.1605
     24  C         50.9470   11.2270   39.0440 C.2   575  TRP575      0.2264
     25  O         52.0490   11.6880   39.2950 O.2   575  TRP575     -0.2867
     26  CB        50.2970   13.5160   38.2810 C.3   575  TRP575      0.0550
     27  CG        51.3440   13.4560   37.2460 C.ar  575  TRP575      0.0003
     28  CD1       52.6350   13.0190   37.3790 C.ar  575  TRP575      0.0946
     29  CD2       51.2290   13.9550   35.9210 C.ar  575  TRP575      0.0152
     30  NE1       53.3320   13.2360   36.2190 N.ar  575  TRP575     -0.2442
     31  CE2       52.4910   13.8120   35.3040 C.ar  575  TRP575      0.0810
     32  CE3       50.1820   14.5180   35.1990 C.ar  575  TRP575      0.0012
     33  CZ2       52.7300   14.2170   34.0030 C.ar  575  TRP575      0.0191
     34  CZ3       50.4220   14.9210   33.9060 C.ar  575  TRP575      0.0001
     35  CH2       51.6880   14.7710   33.3180 C.ar  575  TRP575      0.0015
     36  N         47.1260    8.5260   35.5760 N.3   594  ILE594     -0.1245
     37  CA        46.3480    9.4940   36.3430 C.3   594  ILE594      0.1561
     38  C         45.2230    8.7850   37.0890 C.2   594  ILE594      0.2260
     39  O         44.4630    8.0520   36.4680 O.2   594  ILE594     -0.2867
     40  CB        45.7100   10.5450   35.4840 C.3   594  ILE594      0.0252
     41  CG1       46.7870   11.3930   34.8050 C.3   594  ILE594      0.0019
     42  CG2       44.7000   11.3290   36.3150 C.3   594  ILE594      0.0019
     43  CD1       47.6930   12.0440   35.7310 C.3   594  ILE594      0.0001
     44  N         41.8650    9.3680   39.2210 N.3   596  LYS596     -0.1245
     45  CA        40.9350   10.4340   39.5280 C.3   596  LYS596      0.1561
     46  C         39.6320    9.9960   40.1550 C.2   596  LYS596      0.2260
     47  O         39.2020    8.8570   39.9900 O.2   596  LYS596     -0.2867
     48  CB        40.6530   11.2430   38.2420 C.3   596  LYS596      0.0271
     49  CG        39.3790   12.1090   38.2920 C.3   596  LYS596      0.0035
     50  CD        39.3930   13.2590   37.2860 C.3   596  LYS596      0.0206
     51  CE        39.3200   12.7870   35.8280 C.3   596  LYS596      0.1093
     52  NZ        39.4400   13.9430   34.8660 N.3   596  LYS596     -0.1314
     53  N         43.3630    7.5660   24.2980 N.3   630  TYR630     -0.1241
     54  CA        44.2290    7.0790   25.3630 C.3   630  TYR630      0.1605
     55  C         43.6010    6.0340   26.3060 C.2   630  TYR630      0.2264
     56  O         42.3830    5.8870   26.3840 O.2   630  TYR630     -0.2867
     57  CB        44.7660    8.2860   26.1560 C.3   630  TYR630      0.0534
     58  CG        43.6780    9.2080   26.5910 C.ar  630  TYR630     -0.0201
     59  CD1       43.0350    9.0230   27.8030 C.ar  630  TYR630     -0.0009
     60  CD2       43.2090   10.2040   25.7350 C.ar  630  TYR630     -0.0009
     61  CE1       41.9650    9.7950   28.1370 C.ar  630  TYR630      0.0417
     62  CE2       42.1420   10.9790   26.0640 C.ar  630  TYR630      0.0417
     63  CZ        41.5120   10.7860   27.2530 C.ar  630  TYR630      0.1957
     64  OH        40.4260   11.5660   27.5030 O.3   630  TYR630     -0.2866
     65  N         43.7920    6.7820   34.2120 N.3   642  ILE642     -0.1231
     66  CA        43.8770    7.3180   32.8480 C.3   642  ILE642      0.1692
     67  C         45.3170    7.3630   32.3370 C.2   642  ILE642      0.2592
     68  O         46.1990    7.8220   33.0630 O.2   642  ILE642     -0.2718
     69  CB        43.3670    8.7630   32.8030 C.3   642  ILE642      0.0266
     70  CG1       41.8570    8.8510   33.0800 C.3   642  ILE642      0.0019
     71  CG2       43.7800    9.3480   31.4910 C.3   642  ILE642      0.0020
     72  CD1       41.3760   10.2760   33.4490 C.3   642  ILE642      0.0001
     73  N         45.5490    6.9330   31.1030 N.am  643  GLU643     -0.1966
     74  CA        46.9050    6.9710   30.5350 C.3   643  GLU643      0.1733
     75  C         47.3370    8.4070   30.3420 C.2   643  GLU643      0.2616
     76  O         46.5730    9.2260   29.8140 O.2   643  GLU643     -0.2715
     77  CB        46.9630    6.2830   29.1750 C.3   643  GLU643      0.0429
     78  CG        48.2830    6.4460   28.3950 C.3   643  GLU643      0.1163
     79  CD        48.0980    6.0060   26.9460 C.2   643  GLU643      0.3649
     80  OE1       48.8210    6.4940   26.0180 O.co2 643  GLU643     -0.2457
     81  OE2       47.1930    5.1560   26.7620 O.co2 643  GLU643     -0.2457
     82  N         48.5680    8.6840   30.7670 N.am  644  ILE644     -0.1963
     83  CA        49.1680   10.0050   30.6660 C.3   644  ILE644      0.1727
     84  C         49.8800   10.0960   29.3210 C.2   644  ILE644      0.2616
     85  O         50.9480    9.5160   29.1430 O.2   644  ILE644     -0.2715
     86  CB        50.2360   10.1820   31.7450 C.3   644  ILE644      0.0290
     87  CG1       49.5980   10.2270   33.1400 C.3   644  ILE644      0.0022
     88  CG2       51.0270   11.4060   31.4500 C.3   644  ILE644      0.0023
     89  CD1       50.6160   10.4470   34.2380 C.3   644  ILE644      0.0001
     90  N         49.3100   10.8220   28.3740 N.am  645  VAL645     -0.1963
     91  CA        49.9560   10.9170   27.0740 C.3   645  VAL645      0.1727
     92  C         51.2370   11.7330   27.2050 C.2   645  VAL645      0.2616
     93  O         51.1890   12.8770   27.6290 O.2   645  VAL645     -0.2715
     94  CB        49.0520   11.5770   26.0150 C.3   645  VAL645      0.0290
     95  CG1       49.8400   11.7940   24.7570 C.3   645  VAL645      0.0023
     96  CG2       47.8580   10.6950   25.6980 C.3   645  VAL645      0.0023
     97  N         52.3790   11.1630   26.8300 N.am  646  LYS646     -0.1963
     98  CA        53.6450   11.8780   26.9590 C.3   646  LYS646      0.1728
     99  C         53.7840   13.0510   25.9870 C.2   646  LYS646      0.2616
    100  O         53.3160   12.9740   24.8440 O.2   646  LYS646     -0.2715
    101  CB        54.8130   10.9040   26.8160 C.3   646  LYS646      0.0311
    102  CG        55.5460   10.5890   28.1380 C.3   646  LYS646      0.0038
    103  CD        54.6210   10.0800   29.2670 C.3   646  LYS646      0.0206
    104  CE        55.3850    9.7410   30.5790 C.3   646  LYS646      0.1093
    105  NZ        55.8760   10.8770   31.4480 N.3   646  LYS646     -0.1314
    106  N         54.4150   14.1210   26.4770 N.am  647  ASP647     -0.1957
    107  CA        54.6550   15.3670   25.7390 C.3   647  ASP647      0.1840
    108  C         53.4060   16.0490   25.1910 C.2   647  ASP647      0.2622
    109  O         53.3130   16.3720   24.0200 O.2   647  ASP647     -0.2715
    110  CB        55.6750   15.1480   24.6160 C.3   647  ASP647      0.1450
    111  CG        57.0960   14.9540   25.1470 C.2   647  ASP647      0.3671
    112  OD1       57.4840   15.6530   26.1220 O.co2 647  ASP647     -0.2456
    113  OD2       57.8310   14.1180   24.5810 O.co2 647  ASP647     -0.2456
    114  N         52.4380   16.2800   26.0540 N.am  648  ALA648     -0.1963
    115  CA        51.2390   16.9250   25.6160 C.3   648  ALA648      0.1728
    116  C         50.8780   17.9960   26.6250 C.2   648  ALA648      0.2617
    117  O         51.2510   17.9570   27.7820 O.2   648  ALA648     -0.2715
    118  CB        50.0890   15.8900   25.4370 C.3   648  ALA648      0.0334
    119  N         50.1910   19.0020   26.1080 N.am  649  THR649     -0.1937
    120  CA        49.6740   20.1480   26.8690 C.3   649  THR649      0.2028
    121  C         48.2500   20.5360   26.4790 C.2   649  THR649      0.2642
    122  O         47.7950   20.2950   25.3610 O.2   649  THR649     -0.2714
    123  CB        50.5710   21.4080   26.7750 C.3   649  THR649      0.1808
    124  OG1       51.9370   21.0210   26.8750 O.3   649  THR649     -0.2208
    125  CG2       50.2850   22.3330   27.9580 C.3   649  THR649      0.0379
    126  N         47.5420   21.0990   27.4500 N.am  650  THR650     -0.1950
    127  CA        46.1850   21.5430   27.2460 C.3   650  THR650      0.1897
    128  C         46.3010   22.7770   26.3580 C.2   650  THR650      0.2313
    129  O         47.2660   23.5350   26.4580 O.2   650  THR650     -0.2863
    130  CB        45.4960   21.8830   28.6010 C.3   650  THR650      0.1794
    131  OG1       45.0060   20.6740   29.1890 O.3   650  THR650     -0.2208
    132  CG2       44.3390   22.8410   28.4020 C.3   650  THR650      0.0378
    133  N         46.1970   25.7250   28.5290 N.3   653  LYS653     -0.1245
    134  CA        47.4720   25.9930   29.1910 C.3   653  LYS653      0.1561
    135  C         48.4190   26.6900   28.2180 C.2   653  LYS653      0.2260
    136  O         49.2260   27.5270   28.6300 O.2   653  LYS653     -0.2867
    137  CB        48.0960   24.6930   29.7390 C.3   653  LYS653      0.0271
    138  CG        48.4570   24.7670   31.2400 C.3   653  LYS653      0.0035
    139  CD        48.0050   23.5360   32.0060 C.3   653  LYS653      0.0206
    140  CE        46.4780   23.3930   32.0130 C.3   653  LYS653      0.1093
    141  NZ        46.0000   22.1820   32.7450 N.3   653  LYS653     -0.1314
    142  N         40.1070   23.8310   27.8900 N.3   712  ASP712     -0.1239
    143  CA        40.9050   23.0520   28.8540 C.3   712  ASP712      0.1674
    144  C         40.7530   21.5180   28.7410 C.2   712  ASP712      0.2266
    145  O         41.4050   20.7410   29.4730 O.2   712  ASP712     -0.2867
    146  CB        40.5210   23.4840   30.2630 C.3   712  ASP712      0.1410
    147  CG        41.3540   22.8010   31.3190 C.2   712  ASP712      0.3668
    148  OD1       42.6000   22.7620   31.1430 O.co2 712  ASP712     -0.2456
    149  OD2       40.7690   22.3210   32.3260 O.co2 712  ASP712     -0.2456
    150  N         43.7090   18.6350   24.1760 N.3   715  MET715     -0.1245
    151  CA        45.1470   18.6920   24.1980 C.3   715  MET715      0.1570
    152  C         45.8150   18.5600   22.8760 C.2   715  MET715      0.2261
    153  O         45.1250   18.4230   21.8620 O.2   715  MET715     -0.2867
    154  CB        45.6670   17.6830   25.1650 C.3   715  MET715      0.0387
    155  CG        45.2640   18.1210   26.5360 C.3   715  MET715      0.0595
    156  SD        45.8450   16.9070   27.7320 S.3   715  MET715     -0.1393
    157  CE        47.6900   17.1820   27.5560 C.3   715  MET715      0.0692
    158  N         44.1030   16.3460   20.5130 N.3   723  PHE723     -0.1241
    159  CA        43.1560   15.3950   21.0770 C.3   723  PHE723      0.1605
    160  C         42.3300   15.7910   22.3380 C.2   723  PHE723      0.2264
    161  O         42.8720   16.2310   23.3400 O.2   723  PHE723     -0.2867
    162  CB        43.8690   14.0600   21.3430 C.3   723  PHE723      0.0534
    163  CG        44.7810   14.0830   22.5170 C.ar  723  PHE723     -0.0203
    164  CD1       44.3340   13.6800   23.7410 C.ar  723  PHE723     -0.0042
    165  CD2       46.0910   14.4980   22.3940 C.ar  723  PHE723     -0.0042
    166  CE1       45.1710   13.6810   24.8290 C.ar  723  PHE723     -0.0003
    167  CE2       46.9460   14.4990   23.4850 C.ar  723  PHE723     -0.0003
    168  CZ        46.4770   14.0880   24.7110 C.ar  723  PHE723     -0.0000
    169  N         39.7710   15.3380   25.7340 N.3   725  ILE725     -0.1231
    170  CA        39.9070   14.5520   26.9630 C.3   725  ILE725      0.1692
    171  C         38.7480   14.8300   27.9360 C.2   725  ILE725      0.2592
    172  O         37.9600   15.7440   27.7110 O.2   725  ILE725     -0.2718
    173  CB        41.1930   14.9030   27.6950 C.3   725  ILE725      0.0266
    174  CG1       41.0810   16.3530   28.1800 C.3   725  ILE725      0.0019
    175  CG2       42.4210   14.7360   26.7520 C.3   725  ILE725      0.0020
    176  CD1       42.3040   16.8060   28.9550 C.3   725  ILE725      0.0001
    177  N         38.6630   14.0500   29.0090 N.am  726  ASP726     -0.1974
    178  CA        37.5990   14.1810   30.0240 C.3   726  ASP726      0.1709
    179  C         36.2010   14.2050   29.4120 C.2   726  ASP726      0.2293
    180  O         35.5120   15.2150   29.4580 O.2   726  ASP726     -0.2864
    181  CB        37.7310   15.4560   30.8830 C.3   726  ASP726      0.1436
    182  CG        39.1000   15.5990   31.5560 C.2   726  ASP726      0.3671
    183  OD1       39.6820   14.5710   31.9920 O.co2 726  ASP726     -0.2456
    184  OD2       39.5870   16.7510   31.6600 O.co2 726  ASP726     -0.2456
@<TRIPOS>BOND
     1   158   159    1
     2   159   162    1
     3   159   160    1
     4   162   163    1
     5   153   152    2
     6   160   161    2
     7   165   163   ar
     8   165   167   ar
     9   163   164   ar
    10   152   151    1
    11   167   168   ar
    12   164   166   ar
    13   109   108    2
    14   150   151    1
    15   151   154    1
    16    53    54    1
    17   113   111   ar
    18   110   111    1
    19   110   107    1
    20   168   166   ar
    21    95    94    1
    22   100    99    2
    23   111   112   ar
    24   154   155    1
    25   108   107    1
    26   108   114   am
    27   122   121    2
    28    54    57    1
    29    54    55    1
    30   118   115    1
    31   115   114    1
    32   115   116    1
    33    96    94    1
    34   169   170    1
    35    60    62   ar
    36    60    58   ar
    37   107   106    1
    38    99   106   am
    39    99    98    1
    40    94    91    1
    41    80    79   ar
    42    62    63   ar
    43   119   116   am
    44   119   120    1
    45    57    58    1
    46    55    56    2
    47   128   129    2
    48   128   127    1
    49   121   120    1
    50   121   126   am
    51   155   156    1
    52    58    59   ar
    53   116   117    2
    54   175   173    1
    55    81    79   ar
    56   123   120    1
    57   123   124    1
    58   123   125    1
    59   101    98    1
    60   101   102    1
    61    97    98    1
    62    97    92   am
    63    79    78    1
    64   170   173    1
    65   170   171    1
    66    91    92    1
    67    91    90    1
    68    92    93    2
    69   127   126    1
    70   127   130    1
    71    63    64    1
    72    63    61   ar
    73   157   156    1
    74   173   174    1
    75   172   171    2
    76    59    61   ar
    77   142   143    1
    78   171   177   am
    79   102   103    1
    80   174   176    1
    81   135   136    2
    82   135   134    1
    83    90    84   am
    84    78    77    1
    85   132   130    1
    86   133   134    1
    87   130   131    1
    88   144   143    1
    89   144   145    2
    90   143   146    1
    91   177   178    1
    92    85    84    2
    93    77    74    1
    94   134   137    1
    95   103   104    1
    96    84    83    1
    97   179   180    2
    98   179   178    1
    99   137   138    1
   100    76    75    2
   101   178   181    1
   102   146   147    1
   103    75    74    1
   104    75    82   am
   105    74    73    1
   106   104   105    1
   107    83    82    1
   108    83    86    1
   109   181   182    1
   110    73    67   am
   111   148   147   ar
   112   138   139    1
   113   147   149   ar
   114    88    86    1
   115    71    69    1
   116   182   184   ar
   117   182   183   ar
   118    86    87    1
   119   139   140    1
   120   140   141    1
   121    67    66    1
   122    67    68    2
   123    69    66    1
   124    69    70    1
   125    66    65    1
   126    70    72    1
   127    87    89    1
   128    35    34   ar
   129    35    33   ar
   130    34    32   ar
   131    33    31   ar
   132    41    40    1
   133    41    43    1
   134    52    51    1
   135    32    29   ar
   136    31    29   ar
   137    31    30   ar
   138    40    42    1
   139    40    37    1
   140    36    37    1
   141    51    50    1
   142    29    27   ar
   143    30    28   ar
   144    37    38    1
   145    39    38    2
   146     7     8    1
   147     7     6    1
   148    27    28   ar
   149    27    26    1
   150    50    49    1
   151    13    14    1
   152    13    10    1
   153     6     5    1
   154    48    49    1
   155    48    45    1
   156    26    23    1
   157    23    24    1
   158    23    22    1
   159     5     2    1
   160    10     9    1
   161    10    11    1
   162    20    19    1
   163    20    21    1
   164    24    25    2
   165    19    16    1
   166    44    45    1
   167    45    46    1
   168    11    12    2
   169     2     3    1
   170     2     1    1
   171    47    46    2
   172    21    15    1
   173     3     4    2
   174    18    17    2
   175    16    17    1
   176    16    15    1
