@<TRIPOS>MOLECULE
tmp/3cswC00.pdb
 185 177 0 0 0
SMALL
GASTEIGER

@<TRIPOS>ATOM
      1  N         13.4640   15.1830   53.5390 N.3    33  TYR33      -0.1241
      2  CA        13.9020   16.5680   53.4880 C.3    33  TYR33       0.1605
      3  C         14.8420   16.9730   54.6090 C.2    33  TYR33       0.2264
      4  O         15.0130   16.2610   55.6070 O.2    33  TYR33      -0.2867
      5  CB        12.6850   17.5240   53.4360 C.3    33  TYR33       0.0534
      6  CG        12.0010   17.6890   54.7650 C.ar   33  TYR33      -0.0201
      7  CD1       11.0920   16.7420   55.2220 C.ar   33  TYR33      -0.0009
      8  CD2       12.2940   18.7650   55.5940 C.ar   33  TYR33      -0.0009
      9  CE1       10.4880   16.8690   56.4350 C.ar   33  TYR33       0.0417
     10  CE2       11.7020   18.8840   56.8380 C.ar   33  TYR33       0.0417
     11  CZ        10.7930   17.9330   57.2390 C.ar   33  TYR33       0.1957
     12  OH        10.1840   18.0370   58.4540 O.3    33  TYR33      -0.2866
     13  N         16.3810   20.9930   56.3090 N.3    35  THR35      -0.1218
     14  CA        16.2680   22.4490   56.3330 C.3    35  THR35       0.1862
     15  C         17.5660   23.0320   56.8700 C.2    35  THR35       0.2287
     16  O         18.1330   22.5470   57.8570 O.2    35  THR35      -0.2866
     17  CB        15.0620   22.9670   57.1480 C.3    35  THR35       0.1770
     18  OG1       15.1080   22.4490   58.4790 O.3    35  THR35      -0.2211
     19  CG2       13.7630   22.5470   56.4990 C.3    35  THR35       0.0375
     20  N         23.9580   18.2090   57.6320 N.3    49  HIS49      -0.1241
     21  CA        22.6570   18.0550   57.0080 C.3    49  HIS49       0.1621
     22  C         22.6600   17.0190   55.8790 C.2    49  HIS49       0.2264
     23  O         21.6890   16.2640   55.7290 O.2    49  HIS49      -0.2867
     24  CB        22.1180   19.4080   56.5220 C.3    49  HIS49       0.0745
     25  CG        21.5940   20.2840   57.6330 C.ar   49  HIS49       0.0817
     26  ND1       20.3860   20.0500   58.2530 N.ar   49  HIS49      -0.2268
     27  CD2       22.1200   21.3720   58.2390 C.ar   49  HIS49       0.1154
     28  CE1       20.1890   20.9670   59.1810 C.ar   49  HIS49       0.1986
     29  NE2       21.2330   21.7720   59.2050 N.ar   49  HIS49      -0.2212
     30  N         22.6160   13.4940   57.3270 N.3    52  ARG52      -0.1245
     31  CA        21.2380   13.2090   57.7970 C.3    52  ARG52       0.1563
     32  C         20.2970   12.9040   56.6340 C.2    52  ARG52       0.2260
     33  O         19.4510   12.0250   56.7340 O.2    52  ARG52      -0.2867
     34  CB        20.6150   14.3630   58.6130 C.3    52  ARG52       0.0307
     35  CG        20.5090   14.1490   60.1210 C.3    52  ARG52       0.0489
     36  CD        19.1090   14.5180   60.6720 C.3    52  ARG52       0.2205
     37  NE        18.6520   15.8800   60.3530 N.pl3  52  ARG52      -0.0865
     38  CZ        18.5740   16.8930   61.2190 C.cat  52  ARG52       0.5346
     39  NH1       18.8800   16.7330   62.4900 N.pl3  52  ARG52       0.1354
     40  NH2       18.1450   18.0730   60.8130 N.pl3  52  ARG52       0.1354
     41  N          4.4910   10.9770   69.7440 N.3   124  ARG124     -0.1245
     42  CA         5.5460   10.6670   68.7860 C.3   124  ARG124      0.1563
     43  C          5.4490    9.2190   68.3790 C.2   124  ARG124      0.2260
     44  O          5.2810    8.3500   69.2380 O.2   124  ARG124     -0.2867
     45  CB         6.8980   10.9220   69.4220 C.3   124  ARG124      0.0307
     46  CG         8.0520   10.9700   68.4630 C.3   124  ARG124      0.0489
     47  CD         8.0510   12.2710   67.6630 C.3   124  ARG124      0.2205
     48  NE         9.3480   12.4960   67.0280 N.pl3 124  ARG124     -0.0865
     49  CZ         9.6040   12.5760   65.7190 C.cat 124  ARG124      0.5346
     50  NH1        8.6610   12.4650   64.7940 N.pl3 124  ARG124      0.1354
     51  NH2       10.8470   12.7740   65.3330 N.pl3 124  ARG124      0.1354
     52  N         13.0920   12.0760   58.4140 N.3   135  LYS135     -0.1245
     53  CA        12.4560   13.3660   58.1150 C.3   135  LYS135      0.1561
     54  C         11.7860   13.2150   56.7710 C.2   135  LYS135      0.2260
     55  O         12.4530   13.2900   55.7340 O.2   135  LYS135     -0.2867
     56  CB        13.4450   14.5330   58.0260 C.3   135  LYS135      0.0271
     57  CG        13.9130   15.0930   59.3450 C.3   135  LYS135      0.0035
     58  CD        14.9570   16.2210   59.1680 C.3   135  LYS135      0.0206
     59  CE        14.3170   17.5820   59.0130 C.3   135  LYS135      0.1093
     60  NZ        13.9240   18.1500   60.3270 N.3   135  LYS135     -0.1314
     61  N          3.9620   14.4220   63.0030 N.3   142  ILE142     -0.1245
     62  CA         4.3340   15.8040   62.7560 C.3   142  ILE142      0.1561
     63  C          3.2020   16.5670   62.0520 C.2   142  ILE142      0.2260
     64  O          2.8350   17.6520   62.4770 O.2   142  ILE142     -0.2867
     65  CB         5.6750   15.8960   61.9870 C.3   142  ILE142      0.0252
     66  CG1        6.7910   15.2090   62.7830 C.3   142  ILE142      0.0019
     67  CG2        6.0460   17.3620   61.7020 C.3   142  ILE142      0.0019
     68  CD1        7.0150   15.7840   64.2200 C.3   142  ILE142      0.0001
     69  N          1.3860   19.6680   63.9630 N.3   146  ARG146     -0.1245
     70  CA         1.5060   21.0260   63.4470 C.3   146  ARG146      0.1563
     71  C          0.1680   21.7450   63.4020 C.2   146  ARG146      0.2260
     72  O          0.1280   22.9510   63.5340 O.2   146  ARG146     -0.2867
     73  CB         2.1370   21.0500   62.0520 C.3   146  ARG146      0.0307
     74  CG         3.5770   20.5710   61.9930 C.3   146  ARG146      0.0489
     75  CD         4.6270   21.6540   62.2140 C.3   146  ARG146      0.2205
     76  NE         5.9740   21.0740   62.2890 N.pl3 146  ARG146     -0.0865
     77  CZ         6.8050   20.9170   61.2590 C.cat 146  ARG146      0.5346
     78  NH1        6.4550   21.3320   60.0490 N.pl3 146  ARG146      0.1354
     79  NH2        8.0180   20.3620   61.4360 N.pl3 146  ARG146      0.1354
     80  N         10.2040   15.6650   71.7270 N.3   166  GLU166     -0.1231
     81  CA        10.6340   16.9210   71.0810 C.3   166  GLU166      0.1699
     82  C          9.4450   17.7280   70.6260 C.2   166  GLU166      0.2593
     83  O          8.3060   17.2570   70.7020 O.2   166  GLU166     -0.2718
     84  CB        11.5130   16.5940   69.8670 C.3   166  GLU166      0.0402
     85  CG        10.8310   15.6720   68.8350 C.3   166  GLU166      0.1161
     86  CD        11.8270   14.9870   67.9220 C.2   166  GLU166      0.3649
     87  OE1       12.7570   15.6350   67.3870 O.co2 166  GLU166     -0.2457
     88  OE2       11.6840   13.7750   67.7470 O.co2 166  GLU166     -0.2457
     89  N          9.7020   18.9510   70.1850 N.am  167  GLY167     -0.1942
     90  CA         8.6670   19.7830   69.5810 C.3   167  GLY167      0.2014
     91  C          8.4280   19.2800   68.1710 C.2   167  GLY167      0.2640
     92  O          9.1970   18.4580   67.6950 O.2   167  GLY167     -0.2714
     93  N          7.3760   19.7680   67.5030 N.am  168  SER168     -0.1935
     94  CA         7.0720   19.3270   66.1380 C.3   168  SER168      0.2055
     95  C          8.1240   19.7800   65.1190 C.2   168  SER168      0.2643
     96  O          8.2500   19.1740   64.0570 O.2   168  SER168     -0.2714
     97  CB         5.6710   19.7610   65.6840 C.3   168  SER168      0.2130
     98  OG         5.6720   21.1120   65.2830 O.3   168  SER168     -0.2179
     99  N          8.8790   20.8320   65.4280 N.am  169  PHE169     -0.1959
    100  CA         9.9870   21.2450   64.5590 C.3   169  PHE169      0.1771
    101  C         11.2660   21.5830   65.3280 C.2   169  PHE169      0.2620
    102  O         12.1720   22.2020   64.7700 O.2   169  PHE169     -0.2715
    103  CB         9.5960   22.4240   63.6410 C.3   169  PHE169      0.0574
    104  CG         9.1560   23.6670   64.3660 C.ar  169  PHE169     -0.0200
    105  CD1       10.0850   24.5930   64.8170 C.ar  169  PHE169     -0.0042
    106  CD2        7.8200   23.9170   64.5940 C.ar  169  PHE169     -0.0042
    107  CE1        9.6760   25.7420   65.4910 C.ar  169  PHE169     -0.0003
    108  CE2        7.4040   25.0670   65.2590 C.ar  169  PHE169     -0.0003
    109  CZ         8.3320   25.9760   65.7030 C.ar  169  PHE169     -0.0000
    110  N         11.3580   21.1470   66.5850 N.am  170  SER170     -0.1936
    111  CA        12.4740   21.5530   67.4510 C.3   170  SER170      0.2055
    112  C         12.7820   20.5060   68.4980 C.2   170  SER170      0.2643
    113  O         11.9580   19.6450   68.7620 O.2   170  SER170     -0.2714
    114  CB        12.1380   22.8870   68.1420 C.3   170  SER170      0.2130
    115  OG        10.9640   22.7820   68.9500 O.3   170  SER170     -0.2179
    116  N         13.9680   20.6050   69.0990 N.am  171  ASN171     -0.1971
    117  CA        14.3550   19.7680   70.2220 C.3   171  ASN171      0.1688
    118  C         14.1560   20.5430   71.5250 C.2   171  ASN171      0.2292
    119  O         14.1270   21.7670   71.5170 O.2   171  ASN171     -0.2864
    120  CB        15.8160   19.2900   70.1140 C.3   171  ASN171      0.1181
    121  CG        16.0210   18.2530   69.0170 C.2   171  ASN171      0.2629
    122  OD1       16.6330   18.5350   67.9830 O.2   171  ASN171     -0.2716
    123  ND2       15.5070   17.0560   69.2390 N.am  171  ASN171     -0.0877
    124  N         14.5200   12.9620   66.9000 N.3   190  LEU190     -0.1245
    125  CA        15.4140   13.3760   65.8440 C.3   190  LEU190      0.1561
    126  C         16.6890   13.9520   66.4520 C.2   190  LEU190      0.2260
    127  O         16.6280   14.7510   67.4070 O.2   190  LEU190     -0.2867
    128  CB        14.7660   14.4440   64.9930 C.3   190  LEU190      0.0270
    129  CG        15.3930   14.6180   63.6170 C.3   190  LEU190      0.0019
    130  CD1       14.5610   13.8320   62.6470 C.3   190  LEU190      0.0001
    131  CD2       15.3970   16.0900   63.2590 C.3   190  LEU190      0.0001
    132  N         18.7270   16.5060   66.2380 N.3   192  GLY192     -0.1210
    133  CA        18.8650   17.8620   65.7140 C.3   192  GLY192      0.1956
    134  C         20.3000   18.3570   65.6920 C.2   192  GLY192      0.2612
    135  O         21.1160   18.0130   66.5730 O.2   192  GLY192     -0.2717
    136  N         20.6110   19.1670   64.6820 N.am  193  ILE193     -0.1965
    137  CA        21.9420   19.7460   64.5330 C.3   193  ILE193      0.1727
    138  C         22.1390   20.9350   65.5040 C.2   193  ILE193      0.2617
    139  O         23.2330   21.1210   66.0260 O.2   193  ILE193     -0.2715
    140  CB        22.2500   20.0890   63.0420 C.3   193  ILE193      0.0290
    141  CG1       22.5310   18.7910   62.2880 C.3   193  ILE193      0.0022
    142  CG2       23.4610   21.0190   62.9060 C.3   193  ILE193      0.0023
    143  CD1       22.2560   18.8450   60.8410 C.3   193  ILE193      0.0001
    144  N         21.0870   21.7200   65.7520 N.am  194  THR194     -0.1937
    145  CA        21.1580   22.8000   66.7550 C.3   194  THR194      0.2028
    146  C         21.3820   22.1870   68.1520 C.2   194  THR194      0.2642
    147  O         22.2180   22.6550   68.9290 O.2   194  THR194     -0.2714
    148  CB        19.8750   23.6740   66.7160 C.3   194  THR194      0.1808
    149  OG1       19.4840   23.8920   65.3530 O.3   194  THR194     -0.2208
    150  CG2       20.0750   25.0160   67.4380 C.3   194  THR194      0.0379
    151  N         20.6240   21.1290   68.4500 N.am  195  ARG195     -0.1977
    152  CA        20.7600   20.3500   69.6940 C.3   195  ARG195      0.1597
    153  C         22.1970   19.9220   69.9260 C.2   195  ARG195      0.2287
    154  O         22.7690   20.1760   70.9900 O.2   195  ARG195     -0.2864
    155  CB        19.8480   19.1220   69.5930 C.3   195  ARG195      0.0334
    156  CG        19.9420   18.1140   70.6990 C.3   195  ARG195      0.0492
    157  CD        19.2480   16.8390   70.3010 C.3   195  ARG195      0.2205
    158  NE        19.2660   15.8520   71.3840 N.pl3 195  ARG195     -0.0865
    159  CZ        20.2710   15.0260   71.6290 C.cat 195  ARG195      0.5346
    160  NH1       21.3540   15.0390   70.8510 N.pl3 195  ARG195      0.1354
    161  NH2       20.1850   14.1790   72.6430 N.pl3 195  ARG195      0.1354
    162  N         15.4020   24.1910   70.5870 N.3   227  THR227     -0.1203
    163  CA        16.4840   24.3960   69.6260 C.3   227  THR227      0.1994
    164  C         16.0320   24.0030   68.2080 C.2   227  THR227      0.2618
    165  O         15.4250   22.9540   68.0140 O.2   227  THR227     -0.2717
    166  CB        17.8000   23.6250   69.9980 C.3   227  THR227      0.1784
    167  OG1       17.5620   22.2140   69.9880 O.3   227  THR227     -0.2211
    168  CG2       18.3690   24.0760   71.3590 C.3   227  THR227      0.0376
    169  N         16.2920   24.8630   67.2280 N.am  228  HIS228     -0.1961
    170  CA        16.0240   24.5200   65.8070 C.3   228  HIS228      0.1787
    171  C         16.8200   25.4180   64.8960 C.2   228  HIS228      0.2620
    172  O         17.2710   26.4910   65.3030 O.2   228  HIS228     -0.2715
    173  CB        14.5090   24.5110   65.4560 C.3   228  HIS228      0.0785
    174  CG        13.8280   25.8410   65.5760 C.ar  228  HIS228      0.0821
    175  ND1       13.5520   26.6320   64.4810 N.ar  228  HIS228     -0.2267
    176  CD2       13.3580   26.5170   66.6550 C.ar  228  HIS228      0.1154
    177  CE1       12.9370   27.7370   64.8800 C.ar  228  HIS228      0.1986
    178  NE2       12.8100   27.6960   66.1940 N.ar  228  HIS228     -0.2212
    179  N         16.9850   24.9700   63.6590 N.am  229  THR229     -0.1951
    180  CA        17.8980   25.5760   62.6690 C.3   229  THR229      0.1897
    181  C         17.7550   27.0820   62.4450 C.2   229  THR229      0.2313
    182  O         18.7490   27.8330   62.5760 O.2   229  THR229     -0.2863
    183  CB        17.8130   24.8020   61.3090 C.3   229  THR229      0.1794
    184  OG1       18.4750   23.5400   61.4700 O.3   229  THR229     -0.2208
    185  CG2       18.5040   25.5530   60.1650 C.3   229  THR229      0.0378
@<TRIPOS>BOND
     1     5     2    1
     2     5     6    1
     3     2     1    1
     4     2     3    1
     5     3     4    2
     6     6     7   ar
     7     6     8   ar
     8     7     9   ar
     9     8    10   ar
    10    23    22    2
    11    55    54    2
    12    22    21    1
    13    13    14    1
    14    14    15    1
    15    14    17    1
    16     9    11   ar
    17    19    17    1
    18    24    21    1
    19    24    25    1
    20    32    33    2
    21    32    31    1
    22    54    53    1
    23    10    11   ar
    24    15    16    2
    25    21    20    1
    26    17    18    1
    27    11    12    1
    28    30    31    1
    29    25    27   ar
    30    25    26   ar
    31    31    34    1
    32    56    53    1
    33    56    57    1
    34    53    52    1
    35    27    29   ar
    36    26    28   ar
    37    34    35    1
    38    59    58    1
    39    59    60    1
    40    58    57    1
    41    28    29   ar
    42    78    77    1
    43    35    36    1
    44   185   183    1
    45    37    36    1
    46    37    38    2
    47    40    38    1
    48   143   141    1
    49    38    39    1
    50    77    79    1
    51    77    76    2
    52   183   184    1
    53   183   180    1
    54    67    65    1
    55    65    62    1
    56    65    66    1
    57    74    73    1
    58    74    75    1
    59    73    70    1
    60    63    64    2
    61    63    62    1
    62    75    76    1
    63   141   140    1
    64   181   182    2
    65   181   180    1
    66   130   129    1
    67   180   179    1
    68    62    61    1
    69    66    68    1
    70   142   140    1
    71   140   137    1
    72   131   129    1
    73    71    70    1
    74    71    72    2
    75    70    69    1
    76   129   128    1
    77   103   104    1
    78   103   100    1
    79   179   171   am
    80    96    95    2
    81   104   106   ar
    82   104   105   ar
    83   175   177   ar
    84   175   174   ar
    85   137   136    1
    86   137   138    1
    87   100   101    1
    88   100    99    1
    89   106   108   ar
    90   136   134   am
    91   102   101    2
    92    50    49    1
    93   105   107   ar
    94   177   178   ar
    95   171   172    2
    96   171   170    1
    97   128   125    1
    98    95    99   am
    99    95    94    1
   100   108   109   ar
   101    98    97    1
   102   101   110   am
   103    51    49    1
   104   149   148    1
   105   173   174    1
   106   173   170    1
   107   107   109   ar
   108   138   144   am
   109   138   139    2
   110   174   176   ar
   111    97    94    1
   112   134   133    1
   113   134   135    2
   114   133   132    1
   115    49    48    2
   116   144   145    1
   117   170   169    1
   118   125   126    1
   119   125   124    1
   120    94    93    1
   121   178   176   ar
   122   126   127    2
   123   110   111    1
   124   148   145    1
   125   148   150    1
   126   145   146    1
   127    48    47    1
   128   169   164   am
   129    87    86   ar
   130   111   114    1
   131   111   112    1
   132    93    91   am
   133    47    46    1
   134    92    91    2
   135    88    86   ar
   136    86    85    1
   137   122   121    2
   138   165   164    2
   139   114   115    1
   140   146   151   am
   141   146   147    2
   142    91    90    1
   143   164   163    1
   144    43    42    1
   145    43    44    2
   146   151   152    1
   147    46    45    1
   148   112   113    2
   149   112   116   am
   150    42    45    1
   151    42    41    1
   152    85    84    1
   153   121   123   am
   154   121   120    1
   155   116   117    1
   156    90    89    1
   157   155   152    1
   158   155   156    1
   159   163   166    1
   160   163   162    1
   161   152   153    1
   162    84    81    1
   163   153   154    2
   164   167   166    1
   165   166   168    1
   166   120   117    1
   167    89    82   am
   168   117   118    1
   169   157   156    1
   170   157   158    1
   171    82    83    2
   172    82    81    1
   173   160   159    1
   174    81    80    1
   175   158   159    2
   176   119   118    2
   177   159   161    1
