@<TRIPOS>MOLECULE
tmp/3cszA00.pdb
 132 129 0 0 0
SMALL
GASTEIGER

@<TRIPOS>ATOM
      1  N         -6.1070   26.5190   17.2800 N.3    45  GLU45      -0.1245
      2  CA        -5.7720   26.0570   15.9380 C.3    45  GLU45       0.1567
      3  C         -6.3500   24.6880   15.6310 C.2    45  GLU45       0.2260
      4  O         -6.9140   24.4800   14.5330 O.2    45  GLU45      -0.2867
      5  CB        -4.2590   26.0840   15.7450 C.3    45  GLU45       0.0388
      6  CG        -3.6700   27.5080   15.8110 C.3    45  GLU45       0.1160
      7  CD        -3.9700   28.3780   14.5830 C.2    45  GLU45       0.3649
      8  OE1       -4.5480   27.8820   13.5820 O.co2  45  GLU45      -0.2457
      9  OE2       -3.6370   29.5860   14.6070 O.co2  45  GLU45      -0.2457
     10  N         -7.5480   21.5220    8.6520 N.3    54  GLN54      -0.1245
     11  CA        -8.4410   22.7000    8.6180 C.3    54  GLN54       0.1566
     12  C         -9.8250   22.3290    8.0440 C.2    54  GLN54       0.2260
     13  O         -9.8980   21.6810    7.0250 O.2    54  GLN54      -0.2867
     14  CB        -7.8310   23.8250    7.7900 C.3    54  GLN54       0.0367
     15  CG        -8.6830   25.0860    7.7760 C.3    54  GLN54       0.0905
     16  CD        -8.0390   26.2880    7.1010 C.2    54  GLN54       0.2608
     17  OE1       -8.6400   27.3730    7.0430 O.2    54  GLN54      -0.2717
     18  NE2       -6.8490   26.1100    6.5620 N.am   54  GLN54      -0.0878
     19  N         -0.3320   23.3370   15.0800 N.3    68  VAL68      -0.1231
     20  CA        -0.3050   24.7900   14.8470 C.3    68  VAL68       0.1692
     21  C         -0.9550   25.2430   13.5260 C.2    68  VAL68       0.2592
     22  O         -0.9330   26.4270   13.2100 O.2    68  VAL68      -0.2718
     23  CB         1.1430   25.3590   14.8670 C.3    68  VAL68       0.0266
     24  CG1        1.7970   25.1440   16.2370 C.3    68  VAL68       0.0020
     25  CG2        1.9610   24.7320   13.7680 C.3    68  VAL68       0.0020
     26  N         -1.5520   24.2950   12.8000 N.am   69  GLN69      -0.1966
     27  CA        -2.1510   24.5240   11.4850 C.3    69  GLN69       0.1733
     28  C         -1.1790   25.1390   10.4890 C.2    69  GLN69       0.2616
     29  O         -1.4280   26.2270    9.9640 O.2    69  GLN69      -0.2715
     30  CB        -3.4350   25.3420   11.6000 C.3    69  GLN69       0.0408
     31  CG        -4.5130   24.5360   12.3580 C.3    69  GLN69       0.0908
     32  CD        -5.1510   23.4920   11.4740 C.2    69  GLN69       0.2608
     33  OE1       -5.8850   23.8260   10.5400 O.2    69  GLN69      -0.2717
     34  NE2       -4.8850   22.2160   11.7670 N.am   69  GLN69      -0.0878
     35  N         -0.0800   24.4330   10.2510 N.am   70  TRP70      -0.1960
     36  CA         0.8530   24.7690    9.1680 C.3    70  TRP70       0.1771
     37  C          0.0360   24.9110    7.8850 C.2    70  TRP70       0.2620
     38  O         -0.6700   23.9890    7.5290 O.2    70  TRP70      -0.2715
     39  CB         1.8330   23.6360    8.9670 C.3    70  TRP70       0.0590
     40  CG         2.9310   23.6080   10.0410 C.ar   70  TRP70       0.0006
     41  CD1        4.0530   24.4030   10.0930 C.ar   70  TRP70       0.0946
     42  CD2        2.9930   22.7460   11.1710 C.ar   70  TRP70       0.0152
     43  NE1        4.8160   24.0690   11.1910 N.ar   70  TRP70      -0.2442
     44  CE2        4.1810   23.0680   11.8820 C.ar   70  TRP70       0.0810
     45  CE3        2.1540   21.7310   11.6700 C.ar   70  TRP70       0.0012
     46  CZ2        4.5490   22.4160   13.0720 C.ar   70  TRP70       0.0191
     47  CZ3        2.5180   21.0810   12.8480 C.ar   70  TRP70       0.0001
     48  CH2        3.7150   21.4270   13.5390 C.ar   70  TRP70       0.0015
     49  N          0.1480   26.0690    7.2290 N.am   71  THR71      -0.1951
     50  CA        -0.6900   26.4360    6.0830 C.3    71  THR71       0.1897
     51  C          0.1850   27.1460    5.0340 C.2    71  THR71       0.2313
     52  O          0.6600   28.2550    5.3060 O.2    71  THR71      -0.2863
     53  CB        -1.8100   27.3980    6.4840 C.3    71  THR71       0.1794
     54  OG1       -2.5580   26.8660    7.5800 O.3    71  THR71      -0.2208
     55  CG2       -2.7860   27.6430    5.3040 C.3    71  THR71       0.0378
     56  N          3.8520   22.7070    3.6020 N.3    75  ASN75      -0.1240
     57  CA         5.0060   23.3540    4.2990 C.3    75  ASN75       0.1653
     58  C          5.5800   22.3730    5.3330 C.2    75  ASN75       0.2266
     59  O          6.7990   22.2140    5.4570 O.2    75  ASN75      -0.2867
     60  CB         4.5870   24.6410    5.0570 C.3    75  ASN75       0.1155
     61  CG         4.5930   25.9340    4.1840 C.2    75  ASN75       0.2627
     62  OD1        4.2380   27.0260    4.6680 O.2    75  ASN75      -0.2716
     63  ND2        4.9820   25.8140    2.9440 N.am   75  ASN75      -0.0877
     64  N          9.5220   30.1900   10.1620 N.3   106  GLN106     -0.1245
     65  CA         8.1290   30.4460   10.5810 C.3   106  GLN106      0.1566
     66  C          7.9220   31.8000   11.2920 C.2   106  GLN106      0.2260
     67  O          7.0100   32.5840   10.9410 O.2   106  GLN106     -0.2867
     68  CB         7.5270   29.2340   11.3460 C.3   106  GLN106      0.0367
     69  CG         5.9620   29.2520   11.4980 C.3   106  GLN106      0.0905
     70  CD         5.2590   29.5940   10.2120 C.2   106  GLN106      0.2608
     71  OE1        5.6310   29.1060    9.1300 O.2   106  GLN106     -0.2717
     72  NE2        4.2200   30.4220   10.3080 N.am  106  GLN106     -0.0878
     73  N          8.1390   35.5690   12.5370 N.3   108  ILE108     -0.1245
     74  CA         8.4620   36.9280   12.0910 C.3   108  ILE108      0.1561
     75  C          8.4420   37.7880   13.3370 C.2   108  ILE108      0.2260
     76  O          7.4580   37.8140   14.0830 O.2   108  ILE108     -0.2867
     77  CB         7.4810   37.4860   10.9850 C.3   108  ILE108      0.0252
     78  CG1        7.4640   36.5570    9.7620 C.3   108  ILE108      0.0019
     79  CG2        7.8600   38.9530   10.5800 C.3   108  ILE108      0.0019
     80  CD1        6.3800   36.9220    8.7170 C.3   108  ILE108      0.0001
     81  N          4.1210   33.8750   15.0960 N.3   136  TYR136     -0.1227
     82  CA         4.2020   32.5270   14.5210 C.3   136  TYR136      0.1736
     83  C          2.9370   32.1690   13.7220 C.2   136  TYR136      0.2595
     84  O          3.0240   31.7660   12.5390 O.2   136  TYR136     -0.2718
     85  CB         4.4130   31.4940   15.6340 C.3   136  TYR136      0.0548
     86  CG         4.6100   30.0410   15.1540 C.ar  136  TYR136     -0.0200
     87  CD1        3.5360   29.2750   14.7380 C.ar  136  TYR136     -0.0009
     88  CD2        5.8750   29.4510   15.1660 C.ar  136  TYR136     -0.0009
     89  CE1        3.7110   27.9480   14.2990 C.ar  136  TYR136      0.0417
     90  CE2        6.0830   28.1340   14.7290 C.ar  136  TYR136      0.0417
     91  CZ         4.9800   27.3840   14.3070 C.ar  136  TYR136      0.1957
     92  OH         5.1670   26.0940   13.8950 O.3   136  TYR136     -0.2866
     93  N          1.7720   32.2970   14.3610 N.am  137  GLU137     -0.1965
     94  CA         0.5410   31.7850   13.7450 C.3   137  GLU137      0.1733
     95  C          0.0410   32.7060   12.6290 C.2   137  GLU137      0.2616
     96  O         -0.1440   32.2590   11.4960 O.2   137  GLU137     -0.2715
     97  CB        -0.5560   31.5520   14.7970 C.3   137  GLU137      0.0429
     98  CG        -0.1490   30.5170   15.8770 C.3   137  GLU137      0.1163
     99  CD        -0.3060   29.0680   15.4220 C.2   137  GLU137      0.3649
    100  OE1       -0.3170   28.1890   16.3030 O.co2 137  GLU137     -0.2457
    101  OE2       -0.3890   28.7970   14.1970 O.co2 137  GLU137     -0.2457
    102  N         -0.1910   33.9730   12.9680 N.am  138  ARG138     -0.1964
    103  CA        -0.5670   35.0060   11.9680 C.3   138  ARG138      0.1714
    104  C         -1.8220   34.6790   11.1200 C.2   138  ARG138      0.2458
    105  O         -1.7880   34.7860    9.8890 O.2   138  ARG138     -0.2730
    106  CB         0.6300   35.2880   11.0570 C.3   138  ARG138      0.0347
    107  CG         1.8620   35.7170   11.8500 C.3   138  ARG138      0.0492
    108  CD         2.9700   36.2360   10.9540 C.3   138  ARG138      0.2205
    109  NE         3.2540   35.3510    9.8280 N.pl3 138  ARG138     -0.0865
    110  CZ         4.2140   34.4360    9.8060 C.cat 138  ARG138      0.5346
    111  NH1        4.9970   34.2480   10.8590 N.pl3 138  ARG138      0.1354
    112  NH2        4.3970   33.7090    8.7150 N.pl3 138  ARG138      0.1354
    113  N         -2.9320   34.2750   11.7710 N.am  139  PRO139     -0.2716
    114  CA        -4.1440   33.9560   11.0050 C.3   139  PRO139      0.1536
    115  C         -4.8400   35.2130   10.4920 C.2   139  PRO139      0.2598
    116  O         -4.5380   36.3280   10.9510 O.2   139  PRO139     -0.2715
    117  CB        -5.0220   33.2400   12.0370 C.3   139  PRO139      0.0310
    118  CG        -4.6580   33.8340   13.2900 C.3   139  PRO139      0.0237
    119  CD        -3.1580   34.0770   13.2120 C.3   139  PRO139      0.0939
    120  N         -5.7600   35.0340    9.5490 N.am  140  ALA140     -0.1964
    121  CA        -6.4640   36.1650    8.9380 C.3   140  ALA140      0.1728
    122  C         -7.0860   37.0480   10.0020 C.2   140  ALA140      0.2616
    123  O         -7.0000   38.2690    9.9200 O.2   140  ALA140     -0.2715
    124  CB        -7.5310   35.6730    7.9380 C.3   140  ALA140      0.0334
    125  N         -7.6880   36.4370   11.0220 N.am  141  ASN141     -0.1972
    126  CA        -8.2300   37.1960   12.1540 C.3   141  ASN141      0.1688
    127  C         -7.2800   37.2530   13.3260 C.2   141  ASN141      0.2292
    128  O         -7.0760   36.2430   14.0140 O.2   141  ASN141     -0.2864
    129  CB        -9.5820   36.6280   12.6140 C.3   141  ASN141      0.1181
    130  CG       -10.1460   37.3320   13.8620 C.2   141  ASN141      0.2629
    131  OD1       -9.6450   38.3680   14.3140 O.2   141  ASN141     -0.2716
    132  ND2      -11.2170   36.7580   14.4130 N.am  141  ASN141     -0.0877
@<TRIPOS>BOND
     1    63    61   am
     2    56    57    1
     3    61    62    2
     4    61    60    1
     5    57    60    1
     6    57    58    1
     7    51    52    2
     8    51    50    1
     9    55    53    1
    10    58    59    2
    11    50    53    1
    12    50    49    1
    13    53    54    1
    14    18    16   am
    15    13    12    2
    16    17    16    2
    17    16    15    1
    18    49    37   am
    19    38    37    2
    20    15    14    1
    21    14    11    1
    22    37    36    1
    23   124   121    1
    24    12    11    1
    25    11    10    1
    26   112   110    1
    27    80    78    1
    28   121   120    1
    29   121   122    1
    30    39    36    1
    31    39    40    1
    32    71    70    2
    33    36    35    1
    34   120   115   am
    35    78    77    1
    36   110   109    2
    37   110   111    1
    38   109   108    1
    39   105   104    2
    40   123   122    2
    41    29    28    2
    42   122   125   am
    43    40    41   ar
    44    40    42   ar
    45    41    43   ar
    46    64    65    1
    47    70    72   am
    48    70    69    1
    49    35    28   am
    50    28    27    1
    51   115   116    2
    52   115   114    1
    53    33    32    2
    54    79    77    1
    55    65    66    1
    56    65    68    1
    57    67    66    2
    58   108   107    1
    59    77    74    1
    60   114   113    1
    61   114   117    1
    62   125   126    1
    63   106   107    1
    64   106   103    1
    65   104   113   am
    66   104   103    1
    67    42    45   ar
    68    42    44   ar
    69    43    44   ar
    70    68    69    1
    71    32    34   am
    72    32    31    1
    73    27    30    1
    74    27    26    1
    75    96    95    2
    76    30    31    1
    77    45    47   ar
    78   113   119    1
    79    44    46   ar
    80   103   102    1
    81   117   118    1
    82    74    73    1
    83    74    75    1
    84   126   129    1
    85   126   127    1
    86    84    83    2
    87   129   130    1
    88    95   102   am
    89    95    94    1
    90    26    21   am
    91    47    48   ar
    92    46    48   ar
    93    22    21    2
    94   119   118    1
    95   127   128    2
    96    75    76    2
    97    21    20    1
    98     8     7   ar
    99    83    93   am
   100    83    82    1
   101    94    93    1
   102    94    97    1
   103    25    23    1
   104   130   131    2
   105   130   132   am
   106    92    91    1
   107   101    99   ar
   108    89    91   ar
   109    89    87   ar
   110    91    90   ar
   111    82    81    1
   112    82    85    1
   113     4     3    2
   114     7     9   ar
   115     7     6    1
   116    90    88   ar
   117    87    86   ar
   118    97    98    1
   119    20    23    1
   120    20    19    1
   121    23    24    1
   122    86    88   ar
   123    86    85    1
   124    99    98    1
   125    99   100   ar
   126     3     2    1
   127     5     6    1
   128     5     2    1
   129     2     1    1
