@<TRIPOS>MOLECULE
tmp/3ct0A00.pdb
 132 129 0 0 0
SMALL
GASTEIGER

@<TRIPOS>ATOM
      1  N         -6.0580   26.6360   17.2920 N.3    45  GLU45      -0.1245
      2  CA        -5.7440   26.1490   15.9400 C.3    45  GLU45       0.1567
      3  C         -6.3240   24.7590   15.6150 C.2    45  GLU45       0.2260
      4  O         -6.8370   24.5210   14.4900 O.2    45  GLU45      -0.2867
      5  CB        -4.2290   26.1790   15.7070 C.3    45  GLU45       0.0388
      6  CG        -3.5840   27.5760   15.8240 C.3    45  GLU45       0.1160
      7  CD        -3.8810   28.4610   14.6250 C.2    45  GLU45       0.3649
      8  OE1       -4.4660   27.9350   13.6370 O.co2  45  GLU45      -0.2457
      9  OE2       -3.5610   29.6720   14.6670 O.co2  45  GLU45      -0.2457
     10  N         -7.5460   21.5170    8.6870 N.3    54  GLN54      -0.1245
     11  CA        -8.4220   22.7050    8.6840 C.3    54  GLN54       0.1566
     12  C         -9.8060   22.3390    8.0820 C.2    54  GLN54       0.2260
     13  O         -9.8690   21.6730    7.0530 O.2    54  GLN54      -0.2867
     14  CB        -7.7940   23.8400    7.8670 C.3    54  GLN54       0.0367
     15  CG        -8.6280   25.0790    7.8300 C.3    54  GLN54       0.0905
     16  CD        -7.9730   26.2540    7.1150 C.2    54  GLN54       0.2608
     17  OE1       -8.5430   27.3390    7.0790 O.2    54  GLN54      -0.2717
     18  NE2       -6.8060   26.0470    6.5440 N.am   54  GLN54      -0.0878
     19  N         -0.2690   23.3560   15.0730 N.3    68  VAL68      -0.1231
     20  CA        -0.2730   24.8050   14.8490 C.3    68  VAL68       0.1692
     21  C         -0.9210   25.2190   13.4970 C.2    68  VAL68       0.2592
     22  O         -0.8920   26.4000   13.1180 O.2    68  VAL68      -0.2718
     23  CB         1.1510   25.4050   14.8990 C.3    68  VAL68       0.0266
     24  CG1        1.7890   25.2130   16.2960 C.3    68  VAL68       0.0020
     25  CG2        2.0150   24.7750   13.8410 C.3    68  VAL68       0.0020
     26  N         -1.5190   24.2460   12.8070 N.am   69  GLN69      -0.1966
     27  CA        -2.1590   24.4850   11.5040 C.3    69  GLN69       0.1733
     28  C         -1.1470   25.0920   10.5330 C.2    69  GLN69       0.2616
     29  O         -1.3490   26.2070   10.0430 O.2    69  GLN69      -0.2715
     30  CB        -3.4200   25.3490   11.6560 C.3    69  GLN69       0.0408
     31  CG        -4.5190   24.5470   12.4200 C.3    69  GLN69       0.0908
     32  CD        -5.1530   23.4650   11.5020 C.2    69  GLN69       0.2608
     33  OE1       -5.8590   23.7980   10.5500 O.2    69  GLN69      -0.2717
     34  NE2       -4.8730   22.1880   11.7830 N.am   69  GLN69      -0.0878
     35  N         -0.0610   24.3620   10.3040 N.am   70  TRP70      -0.1960
     36  CA         0.8800   24.6660    9.2000 C.3    70  TRP70       0.1771
     37  C          0.1050   24.8020    7.9070 C.2    70  TRP70       0.2620
     38  O         -0.5870   23.8800    7.5310 O.2    70  TRP70      -0.2715
     39  CB         1.8720   23.5410    8.9850 C.3    70  TRP70       0.0590
     40  CG         2.9590   23.5350   10.0310 C.ar   70  TRP70       0.0006
     41  CD1        4.0750   24.3330   10.0610 C.ar   70  TRP70       0.0946
     42  CD2        3.0110   22.7160   11.2010 C.ar   70  TRP70       0.0152
     43  NE1        4.8420   24.0250   11.1650 N.ar   70  TRP70      -0.2442
     44  CE2        4.2050   23.0520   11.8950 C.ar   70  TRP70       0.0810
     45  CE3        2.1780   21.7130   11.7300 C.ar   70  TRP70       0.0012
     46  CZ2        4.5620   22.4370   13.1030 C.ar   70  TRP70       0.0191
     47  CZ3        2.5250   21.1110   12.9420 C.ar   70  TRP70       0.0001
     48  CH2        3.7140   21.4680   13.6110 C.ar   70  TRP70       0.0015
     49  N          0.2670   25.9520    7.2620 N.am   71  THR71      -0.1951
     50  CA        -0.4790   26.3240    6.0650 C.3    71  THR71       0.1897
     51  C          0.5170   26.8850    5.0230 C.2    71  THR71       0.2313
     52  O          1.3410   27.7440    5.3590 O.2    71  THR71      -0.2863
     53  CB        -1.5720   27.3460    6.3890 C.3    71  THR71       0.1794
     54  OG1       -2.3860   26.8720    7.4730 O.3    71  THR71      -0.2208
     55  CG2       -2.4800   27.5950    5.1540 C.3    71  THR71       0.0378
     56  N          3.8810   22.4480    3.3830 N.3    75  ASN75      -0.1240
     57  CA         5.1420   23.0180    3.9120 C.3    75  ASN75       0.1653
     58  C          5.6790   22.0050    4.9510 C.2    75  ASN75       0.2266
     59  O          6.8070   21.4880    4.8280 O.2    75  ASN75      -0.2867
     60  CB         4.9360   24.4070    4.5490 C.3    75  ASN75       0.1155
     61  CG         4.8090   25.5680    3.5070 C.2    75  ASN75       0.2627
     62  OD1        4.4560   26.6960    3.8720 O.2    75  ASN75      -0.2716
     63  ND2        5.0920   25.2820    2.2290 N.am   75  ASN75      -0.0877
     64  N          9.5370   30.3330   10.0760 N.3   106  GLN106     -0.1245
     65  CA         8.1480   30.6190   10.4820 C.3   106  GLN106      0.1566
     66  C          7.9370   31.9420   11.2330 C.2   106  GLN106      0.2260
     67  O          7.0100   32.7160   10.9100 O.2   106  GLN106     -0.2867
     68  CB         7.5220   29.4310   11.2330 C.3   106  GLN106      0.0367
     69  CG         6.0030   29.5710   11.4930 C.3   106  GLN106      0.0905
     70  CD         5.2160   29.7390   10.2360 C.2   106  GLN106      0.2608
     71  OE1        5.5400   29.1390    9.1940 O.2   106  GLN106     -0.2717
     72  NE2        4.1360   30.5470   10.3170 N.am  106  GLN106     -0.0878
     73  N          8.1430   35.6350   12.5190 N.3   108  ILE108     -0.1245
     74  CA         8.4710   36.9870   12.0790 C.3   108  ILE108      0.1561
     75  C          8.4580   37.8700   13.3390 C.2   108  ILE108      0.2260
     76  O          7.4710   37.8970   14.0840 O.2   108  ILE108     -0.2867
     77  CB         7.4900   37.5230   10.9650 C.3   108  ILE108      0.0252
     78  CG1        7.5630   36.6400    9.7160 C.3   108  ILE108      0.0019
     79  CG2        7.7860   39.0090   10.6360 C.3   108  ILE108      0.0019
     80  CD1        6.4620   36.9590    8.6870 C.3   108  ILE108      0.0001
     81  N          4.1260   33.9640   15.0830 N.3   136  TYR136     -0.1227
     82  CA         4.2310   32.6100   14.5150 C.3   136  TYR136      0.1736
     83  C          2.9520   32.2410   13.7620 C.2   136  TYR136      0.2595
     84  O          3.0190   31.7830   12.5990 O.2   136  TYR136     -0.2718
     85  CB         4.5050   31.5930   15.6140 C.3   136  TYR136      0.0548
     86  CG         4.6870   30.1360   15.1340 C.ar  136  TYR136     -0.0200
     87  CD1        3.6010   29.4030   14.6760 C.ar  136  TYR136     -0.0009
     88  CD2        5.9490   29.5070   15.1860 C.ar  136  TYR136     -0.0009
     89  CE1        3.7450   28.0700   14.2060 C.ar  136  TYR136      0.0417
     90  CE2        6.1180   28.1660   14.7360 C.ar  136  TYR136      0.0417
     91  CZ         4.9940   27.4640   14.2680 C.ar  136  TYR136      0.1957
     92  OH         5.1330   26.1750   13.8370 O.3   136  TYR136     -0.2866
     93  N          1.7950   32.4220   14.4140 N.am  137  GLU137     -0.1965
     94  CA         0.5330   31.9110   13.8210 C.3   137  GLU137      0.1733
     95  C          0.0040   32.8240   12.6930 C.2   137  GLU137      0.2616
     96  O         -0.1940   32.3550   11.5550 O.2   137  GLU137     -0.2715
     97  CB        -0.5410   31.6850   14.8850 C.3   137  GLU137      0.0429
     98  CG        -0.1370   30.6170   15.9370 C.3   137  GLU137      0.1163
     99  CD        -0.3020   29.1800   15.4470 C.2   137  GLU137      0.3649
    100  OE1       -0.3010   28.2480   16.2870 O.co2 137  GLU137     -0.2457
    101  OE2       -0.4200   28.9370   14.2240 O.co2 137  GLU137     -0.2457
    102  N         -0.2000   34.0980   13.0230 N.am  138  ARG138     -0.1964
    103  CA        -0.5890   35.1550   12.0530 C.3   138  ARG138      0.1714
    104  C         -1.8290   34.8350   11.2210 C.2   138  ARG138      0.2458
    105  O         -1.7580   34.8730    9.9950 O.2   138  ARG138     -0.2730
    106  CB         0.5750   35.4600   11.1140 C.3   138  ARG138      0.0347
    107  CG         1.8640   35.7310   11.8840 C.3   138  ARG138      0.0492
    108  CD         2.9420   36.2760   11.0000 C.3   138  ARG138      0.2205
    109  NE         3.2590   35.4320    9.8480 N.pl3 138  ARG138     -0.0865
    110  CZ         4.2420   34.5400    9.8310 C.cat 138  ARG138      0.5346
    111  NH1        4.9780   34.3340   10.9190 N.pl3 138  ARG138      0.1354
    112  NH2        4.5010   33.8560    8.7330 N.pl3 138  ARG138      0.1354
    113  N         -2.9590   34.5000   11.8770 N.am  139  PRO139     -0.2716
    114  CA        -4.1890   34.1970   11.1380 C.3   139  PRO139      0.1536
    115  C         -4.8520   35.4900   10.6410 C.2   139  PRO139      0.2598
    116  O         -4.5610   36.5750   11.1430 O.2   139  PRO139     -0.2715
    117  CB        -5.0580   33.4950   12.1870 C.3   139  PRO139      0.0310
    118  CG        -4.6660   34.1600   13.4750 C.3   139  PRO139      0.0237
    119  CD        -3.1710   34.4180   13.3370 C.3   139  PRO139      0.0939
    120  N         -5.7150   35.3770    9.6420 N.am  140  ALA140     -0.1964
    121  CA        -6.4510   36.5330    9.1260 C.3   140  ALA140      0.1728
    122  C         -7.0200   37.4260   10.2400 C.2   140  ALA140      0.2616
    123  O         -6.8130   38.6440   10.2190 O.2   140  ALA140     -0.2715
    124  CB        -7.5390   36.0790    8.1580 C.3   140  ALA140      0.0334
    125  N         -7.6910   36.8350   11.2370 N.am  141  ASN141     -0.1972
    126  CA        -8.1980   37.6070   12.3880 C.3   141  ASN141      0.1688
    127  C         -7.2260   37.5910   13.5630 C.2   141  ASN141      0.2292
    128  O         -6.9980   36.5270   14.1490 O.2   141  ASN141     -0.2864
    129  CB        -9.5820   37.0910   12.8320 C.3   141  ASN141      0.1181
    130  CG       -10.1060   37.7540   14.1350 C.2   141  ASN141      0.2629
    131  OD1       -9.4890   38.6490   14.7150 O.2   141  ASN141     -0.2716
    132  ND2      -11.2670   37.2940   14.5830 N.am  141  ASN141     -0.0877
@<TRIPOS>BOND
     1    63    61   am
     2    56    57    1
     3    61    62    2
     4    61    60    1
     5    57    60    1
     6    57    58    1
     7    59    58    2
     8    51    52    2
     9    51    50    1
    10    55    53    1
    11    50    53    1
    12    50    49    1
    13    53    54    1
    14    18    16   am
    15    13    12    2
    16    17    16    2
    17    16    15    1
    18    49    37   am
    19    38    37    2
    20    15    14    1
    21    14    11    1
    22    37    36    1
    23    12    11    1
    24   124   121    1
    25    11    10    1
    26    80    78    1
    27   112   110    1
    28    39    36    1
    29    39    40    1
    30   121   120    1
    31   121   122    1
    32    71    70    2
    33    36    35    1
    34   120   115   am
    35    78    77    1
    36   110   109    2
    37   110   111    1
    38   109   108    1
    39   105   104    2
    40    40    41   ar
    41    40    42   ar
    42    29    28    2
    43    41    43   ar
    44    64    65    1
    45   123   122    2
    46    70    72   am
    47    70    69    1
    48   122   125   am
    49    35    28   am
    50    65    68    1
    51    65    66    1
    52    28    27    1
    53    33    32    2
    54    79    77    1
    55   115   114    1
    56   115   116    2
    57    67    66    2
    58    77    74    1
    59   108   107    1
    60   106   107    1
    61   106   103    1
    62   114   113    1
    63   114   117    1
    64    43    44   ar
    65    42    45   ar
    66    42    44   ar
    67   104   113   am
    68   104   103    1
    69    68    69    1
    70   125   126    1
    71    32    34   am
    72    32    31    1
    73    27    30    1
    74    27    26    1
    75    96    95    2
    76    30    31    1
    77    45    47   ar
    78   113   119    1
    79    44    46   ar
    80   103   102    1
    81    74    73    1
    82    74    75    1
    83   117   118    1
    84   126   129    1
    85   126   127    1
    86    84    83    2
    87    95   102   am
    88    95    94    1
    89    26    21   am
    90   129   130    1
    91    47    48   ar
    92    46    48   ar
    93    22    21    2
    94   119   118    1
    95    75    76    2
    96    21    20    1
    97   127   128    2
    98     8     7   ar
    99    83    93   am
   100    83    82    1
   101    94    93    1
   102    94    97    1
   103    92    91    1
   104    25    23    1
   105   130   132   am
   106   130   131    2
   107    89    91   ar
   108    89    87   ar
   109   101    99   ar
   110    91    90   ar
   111     4     3    2
   112    82    81    1
   113    82    85    1
   114     7     9   ar
   115     7     6    1
   116    87    86   ar
   117    90    88   ar
   118    20    23    1
   119    20    19    1
   120    97    98    1
   121    23    24    1
   122    86    88   ar
   123    86    85    1
   124    99    98    1
   125    99   100   ar
   126     3     2    1
   127     5     6    1
   128     5     2    1
   129     2     1    1
