@<TRIPOS>MOLECULE
tmp/3ct8A00.pdb
 101 96 0 0 0
SMALL
GASTEIGER

@<TRIPOS>ATOM
      1  N         18.4900   32.6220   22.3940 N.3    68  ARG68      -0.1231
      2  CA        19.9530   32.3410   22.3810 C.3    68  ARG68       0.1694
      3  C         20.8710   33.5130   22.0860 C.2    68  ARG68       0.2591
      4  O         22.1090   33.3910   22.1710 O.2    68  ARG68      -0.2718
      5  CB        20.3380   31.1530   21.4760 C.3    68  ARG68       0.0321
      6  CG        20.2390   31.3730   19.9740 C.3    68  ARG68       0.0489
      7  CD        20.5530   30.0700   19.2370 C.3    68  ARG68       0.2205
      8  NE        20.3740   30.1530   17.7870 N.pl3  68  ARG68      -0.0865
      9  CZ        19.2380   29.9000   17.1640 C.cat  68  ARG68       0.5346
     10  NH1       18.1900   29.4880   17.8500 N.pl3  68  ARG68       0.1354
     11  NH2       19.1710   30.0190   15.8390 N.pl3  68  ARG68       0.1354
     12  N         20.2540   34.6230   21.7220 N.am   69  LYS69      -0.1980
     13  CA        20.9700   35.8720   21.4310 C.3    69  LYS69       0.1596
     14  C         21.2000   36.7050   22.7040 C.2    69  LYS69       0.2287
     15  O         22.0850   37.5790   22.7660 O.2    69  LYS69      -0.2864
     16  CB        20.2270   36.7280   20.4180 C.3    69  LYS69       0.0298
     17  CG        20.4770   36.4680   18.9270 C.3    69  LYS69       0.0038
     18  CD        21.9070   36.7440   18.6090 C.3    69  LYS69       0.0206
     19  CE        22.0680   37.3490   17.2470 C.3    69  LYS69       0.1093
     20  NZ        23.4880   37.2380   16.7860 N.3    69  LYS69      -0.1314
     21  N         24.8380   28.1670   22.6860 N.3    75  HIS75      -0.1241
     22  CA        24.8610   26.7760   22.1820 C.3    75  HIS75       0.1621
     23  C         25.8220   25.8020   22.8350 C.2    75  HIS75       0.2264
     24  O         26.7870   26.1700   23.5110 O.2    75  HIS75      -0.2867
     25  CB        25.0840   26.7410   20.6860 C.3    75  HIS75       0.0745
     26  CG        26.4500   27.1280   20.2230 C.ar   75  HIS75       0.0817
     27  ND1       26.8690   28.4440   20.0950 N.ar   75  HIS75      -0.2268
     28  CD2       27.4420   26.3600   19.7000 C.ar   75  HIS75       0.1154
     29  CE1       28.0760   28.4550   19.5480 C.ar   75  HIS75       0.1986
     30  NE2       28.4480   27.2080   19.3100 N.ar   75  HIS75      -0.2212
     31  N         21.5530   27.2760    9.0940 N.3   102  TYR102     -0.1241
     32  CA        22.4990   27.7180    8.0830 C.3   102  TYR102      0.1605
     33  C         22.6040   26.7160    6.9510 C.2   102  TYR102      0.2264
     34  O         23.7030   26.4560    6.4750 O.2   102  TYR102     -0.2867
     35  CB        23.8680   27.8750    8.7380 C.3   102  TYR102      0.0534
     36  CG        23.7710   28.4450   10.1430 C.ar  102  TYR102     -0.0201
     37  CD1       23.3740   29.7480   10.3670 C.ar  102  TYR102     -0.0009
     38  CD2       24.1160   27.6780   11.2550 C.ar  102  TYR102     -0.0009
     39  CE1       23.2820   30.2520   11.6700 C.ar  102  TYR102      0.0417
     40  CE2       24.0420   28.1890   12.5610 C.ar  102  TYR102      0.0417
     41  CZ        23.6060   29.4580   12.7550 C.ar  102  TYR102      0.1957
     42  OH        23.5580   29.9400   14.0390 O.3   102  TYR102     -0.2866
     43  N         24.9440   26.9960    3.9950 N.3   105  ARG105     -0.1245
     44  CA        26.3800   26.7920    4.0830 C.3   105  ARG105      0.1563
     45  C         26.7730   25.4500    4.6170 C.2   105  ARG105      0.2260
     46  O         27.9550   25.1170    4.6100 O.2   105  ARG105     -0.2867
     47  CB        27.0080   27.8810    4.9380 C.3   105  ARG105      0.0307
     48  CG        27.1730   29.2310    4.2630 C.3   105  ARG105      0.0489
     49  CD        27.5530   30.2540    5.3130 C.3   105  ARG105      0.2205
     50  NE        26.3930   30.5690    6.1440 N.pl3 105  ARG105     -0.0865
     51  CZ        26.4390   31.2560    7.2770 C.cat 105  ARG105      0.5346
     52  NH1       27.6020   31.6480    7.7830 N.pl3 105  ARG105      0.1354
     53  NH2       25.3170   31.4950    7.9370 N.pl3 105  ARG105      0.1354
     54  N         29.0460   25.7980    7.6870 N.3   109  ALA109     -0.1231
     55  CA        28.5150   27.0800    8.1780 C.3   109  ALA109      0.1694
     56  C         29.4960   27.7310    9.1420 C.2   109  ALA109      0.2592
     57  O         29.5010   28.9340    9.2990 O.2   109  ALA109     -0.2718
     58  CB        27.1640   26.9130    8.8430 C.3   109  ALA109      0.0304
     59  N         30.3480   26.9240    9.7700 N.am  110  GLY110     -0.1957
     60  CA        31.3270   27.4400   10.7490 C.3   110  GLY110      0.1869
     61  C         32.6840   27.7690   10.1640 C.2   110  GLY110      0.2309
     62  O         33.5890   28.1820   10.8620 O.2   110  GLY110     -0.2863
     63  N         35.7710   23.7000    9.1260 N.3   114  HIS114     -0.1241
     64  CA        34.8930   23.3440   10.2640 C.3   114  HIS114      0.1621
     65  C         33.6770   22.5620    9.7510 C.2   114  HIS114      0.2264
     66  O         32.7050   23.1280    9.2970 O.2   114  HIS114     -0.2867
     67  CB        34.4810   24.6140   11.0050 C.3   114  HIS114      0.0745
     68  CG        33.7860   24.3630   12.3020 C.ar  114  HIS114      0.0817
     69  ND1       34.4660   24.2660   13.4930 N.ar  114  HIS114     -0.2268
     70  CD2       32.4770   24.2080   12.6030 C.ar  114  HIS114      0.1154
     71  CE1       33.6030   24.0630   14.4730 C.ar  114  HIS114      0.1986
     72  NE2       32.3920   24.0110   13.9570 N.ar  114  HIS114     -0.2212
     73  N         24.5070   22.2440   12.5260 N.3   118  PHE118     -0.1241
     74  CA        23.9320   23.1370   13.4960 C.3   118  PHE118      0.1605
     75  C         22.4190   22.9540   13.4360 C.2   118  PHE118      0.2264
     76  O         21.7950   22.9410   12.3450 O.2   118  PHE118     -0.2867
     77  CB        24.3040   24.5830   13.2040 C.3   118  PHE118      0.0534
     78  CG        25.7670   24.9130   13.4130 C.ar  118  PHE118     -0.0203
     79  CD1       26.6870   24.7870   12.4030 C.ar  118  PHE118     -0.0042
     80  CD2       26.2020   25.4190   14.6210 C.ar  118  PHE118     -0.0042
     81  CE1       28.0340   25.1080   12.6090 C.ar  118  PHE118     -0.0003
     82  CE2       27.5390   25.7440   14.8110 C.ar  118  PHE118     -0.0003
     83  CZ        28.4390   25.5950   13.7880 C.ar  118  PHE118     -0.0000
     84  N         20.6070   26.3990   20.4340 N.3   126  LYS126     -0.1245
     85  CA        21.4330   25.9750   19.2920 C.3   126  LYS126      0.1561
     86  C         22.3480   24.8200   19.7170 C.2   126  LYS126      0.2260
     87  O         22.9620   24.8430   20.7970 O.2   126  LYS126     -0.2867
     88  CB        22.2170   27.1610   18.6690 C.3   126  LYS126      0.0271
     89  CG        23.0210   26.7800   17.4230 C.3   126  LYS126      0.0035
     90  CD        23.5570   27.9710   16.6550 C.3   126  LYS126      0.0206
     91  CE        24.6380   28.7520   17.3550 C.3   126  LYS126      0.1093
     92  NZ        25.1590   29.9430   16.5330 N.3   126  LYS126     -0.1314
     93  N         25.2040   21.9560   18.1420 N.3   128  GLU128     -0.1245
     94  CA        26.2390   21.6350   17.1450 C.3   128  GLU128      0.1567
     95  C         26.9640   20.3150   17.3990 C.2   128  GLU128      0.2260
     96  O         27.2880   19.9460   18.5370 O.2   128  GLU128     -0.2867
     97  CB        27.2750   22.7860   17.1430 C.3   128  GLU128      0.0388
     98  CG        28.4820   22.6630   16.2240 C.3   128  GLU128      0.1160
     99  CD        29.4910   23.7850   16.5190 C.2   128  GLU128      0.3649
    100  OE1       29.0740   24.7340   17.2460 O.co2 128  GLU128     -0.2457
    101  OE2       30.6690   23.7320   16.0820 O.co2 128  GLU128     -0.2457
@<TRIPOS>BOND
     1    43    44    1
     2    44    45    1
     3    44    47    1
     4    48    47    1
     5    48    49    1
     6    46    45    2
     7    49    50    1
     8    50    51    2
     9    34    33    2
    10    33    32    1
    11    51    52    1
    12    51    53    1
    13    54    55    1
    14    32    35    1
    15    32    31    1
    16    55    58    1
    17    55    56    1
    18    35    36    1
    19    63    64    1
    20    56    57    2
    21    56    59   am
    22    66    65    2
    23    65    64    1
    24    59    60    1
    25    36    37   ar
    26    36    38   ar
    27    61    60    1
    28    61    62    2
    29    64    67    1
    30    37    39   ar
    31    67    68    1
    32    38    40   ar
    33    39    41   ar
    34    68    70   ar
    35    68    69   ar
    36    76    75    2
    37    79    81   ar
    38    79    78   ar
    39    73    74    1
    40    40    41   ar
    41    70    72   ar
    42    81    83   ar
    43    41    42    1
    44    77    78    1
    45    77    74    1
    46    78    80   ar
    47    75    74    1
    48    69    71   ar
    49    83    82   ar
    50    72    71   ar
    51    80    82   ar
    52    11     9    1
    53   101    99   ar
    54    98    99    1
    55    98    97    1
    56    99   100   ar
    57    92    91    1
    58    90    91    1
    59    90    89    1
    60    20    19    1
    61    97    94    1
    62    94    95    1
    63    94    93    1
    64     9     8    2
    65     9    10    1
    66    19    18    1
    67    95    96    2
    68    89    88    1
    69     8     7    1
    70    18    17    1
    71    88    85    1
    72    17    16    1
    73     7     6    1
    74    85    86    1
    75    85    84    1
    76    30    29   ar
    77    30    28   ar
    78    29    27   ar
    79    28    26   ar
    80    86    87    2
    81     6     5    1
    82    27    26   ar
    83    26    25    1
    84    16    13    1
    85    25    22    1
    86    13    12    1
    87    13    14    1
    88     5     2    1
    89    12     3   am
    90     3     4    2
    91     3     2    1
    92    22    21    1
    93    22    23    1
    94     2     1    1
    95    14    15    2
    96    23    24    2
