@<TRIPOS>MOLECULE
tmp/3cthA00.pdb
 198 188 0 0 0
SMALL
GASTEIGER

@<TRIPOS>ATOM
      1  N          3.2430   19.7720   55.5360 N.3    33  ILE33      -0.1231
      2  CA         3.5700   18.8290   56.5980 C.3    33  ILE33       0.1692
      3  C          4.4100   17.6920   56.0310 C.2    33  ILE33       0.2592
      4  O          5.4660   17.3510   56.5650 O.2    33  ILE33      -0.2718
      5  CB         2.2980   18.2750   57.2590 C.3    33  ILE33       0.0266
      6  CG1        1.1100   18.3890   56.3000 C.3    33  ILE33       0.0019
      7  CG2        2.0230   18.9940   58.5720 C.3    33  ILE33       0.0020
      8  CD1       -0.0100   17.4230   56.5940 C.3    33  ILE33       0.0001
      9  N          3.9260   17.1010   54.9450 N.am   34  GLY34      -0.1957
     10  CA         4.6150   16.0030   54.2960 C.3    34  GLY34       0.1869
     11  C          5.5790   16.4860   53.2320 C.2    34  GLY34       0.2309
     12  O          5.1920   17.2000   52.3070 O.2    34  GLY34      -0.2863
     13  N          2.4920   16.4220   50.6150 N.3    41  VAL41      -0.1245
     14  CA         1.2430   16.4830   51.3670 C.3    41  VAL41       0.1561
     15  C          0.9280   17.8910   51.8850 C.2    41  VAL41       0.2260
     16  O          1.8040   18.5940   52.3880 O.2    41  VAL41      -0.2867
     17  CB         1.1790   15.4030   52.4750 C.3    41  VAL41       0.0252
     18  CG1        0.0750   14.3990   52.1730 C.3    41  VAL41       0.0019
     19  CG2        2.5190   14.6920   52.6180 C.3    41  VAL41       0.0019
     20  N         -5.2270   15.1110   54.2320 N.3    57  ALA57      -0.1245
     21  CA        -3.8270   15.0830   53.8170 C.3    57  ALA57       0.1562
     22  C         -3.8200   14.8000   52.3210 C.2    57  ALA57       0.2260
     23  O         -4.5000   13.8830   51.8530 O.2    57  ALA57      -0.2867
     24  CB        -3.0620   13.9980   54.5660 C.3    57  ALA57       0.0290
     25  N         -1.2180   14.2430   49.1670 N.3    59  LYS59      -0.1245
     26  CA         0.1270   14.0450   48.6360 C.3    59  LYS59       0.1561
     27  C          0.1220   13.8350   47.1190 C.2    59  LYS59       0.2260
     28  O         -0.7690   13.1810   46.5720 O.2    59  LYS59      -0.2867
     29  CB         0.8310   12.8920   49.3550 C.3    59  LYS59       0.0271
     30  CG         0.2670   11.5150   49.0560 C.3    59  LYS59       0.0035
     31  CD         1.2630   10.4420   49.4610 C.3    59  LYS59       0.0206
     32  CE         1.4400    9.3990   48.3770 C.3    59  LYS59       0.1093
     33  NZ         2.0850    8.1720   48.9150 N.3    59  LYS59      -0.1314
     34  N         -0.7050    2.7980   43.8340 N.3    76  GLU76      -0.1245
     35  CA        -0.3180    2.5750   45.2150 C.3    76  GLU76       0.1567
     36  C         -1.4620    3.0070   46.1340 C.2    76  GLU76       0.2260
     37  O         -2.0000    2.1910   46.8810 O.2    76  GLU76      -0.2867
     38  CB         0.9950    3.2970   45.5500 C.3    76  GLU76       0.0388
     39  CG         0.8690    4.4850   46.4980 C.3    76  GLU76       0.1160
     40  CD         0.5890    4.0740   47.9350 C.2    76  GLU76       0.3649
     41  OE1        1.0730    3.0010   48.3540 O.co2  76  GLU76      -0.2457
     42  OE2       -0.1700    4.7910   48.6220 O.co2  76  GLU76      -0.2457
     43  N         -4.3780    0.9900   46.4870 N.3    79  ILE79      -0.1231
     44  CA        -4.1700   -0.2430   47.2480 C.3    79  ILE79       0.1692
     45  C         -5.0240   -0.2340   48.5090 C.2    79  ILE79       0.2591
     46  O         -5.3040   -1.2840   49.0840 O.2    79  ILE79      -0.2718
     47  CB        -2.6700   -0.4240   47.6260 C.3    79  ILE79       0.0266
     48  CG1       -2.3260   -1.9050   47.7790 C.3    79  ILE79       0.0019
     49  CG2       -2.3400    0.3080   48.9160 C.3    79  ILE79       0.0020
     50  CD1       -2.6820   -2.7370   46.5650 C.3    79  ILE79       0.0001
     51  N         -5.4180    0.9650   48.9300 N.am   80  MET80      -0.1979
     52  CA        -6.1830    1.1720   50.1520 C.3    80  MET80       0.1605
     53  C         -7.6880    1.0970   49.9480 C.2    80  MET80       0.2287
     54  O         -8.4500    1.1050   50.9180 O.2    80  MET80      -0.2864
     55  CB        -5.8110    2.5240   50.7810 C.3    80  MET80       0.0413
     56  CG        -4.5050    3.1210   50.2560 C.3    80  MET80       0.0598
     57  SD        -3.8570    4.4910   51.2550 S.3    80  MET80      -0.1393
     58  CE        -4.5550    4.1190   52.8340 C.3    80  MET80       0.0692
     59  N         -9.2430   -1.2510   52.2200 N.3    83  PHE83      -0.1241
     60  CA        -8.6190   -1.2850   53.5280 C.3    83  PHE83       0.1605
     61  C         -9.5750   -0.6380   54.5390 C.2    83  PHE83       0.2264
     62  O         -9.3810    0.5050   54.9640 O.2    83  PHE83      -0.2867
     63  CB        -7.2670   -0.5520   53.5010 C.3    83  PHE83       0.0534
     64  CG        -6.1250   -1.3950   52.9820 C.ar   83  PHE83      -0.0203
     65  CD1       -6.3480   -2.6970   52.5340 C.ar   83  PHE83      -0.0042
     66  CD2       -4.8300   -0.8860   52.9360 C.ar   83  PHE83      -0.0042
     67  CE1       -5.2980   -3.4710   52.0410 C.ar   83  PHE83      -0.0003
     68  CE2       -3.7750   -1.6540   52.4580 C.ar   83  PHE83      -0.0003
     69  CZ        -4.0080   -2.9440   52.0030 C.ar   83  PHE83      -0.0000
     70  N         -6.0870    0.6540   60.2200 N.3    88  VAL88      -0.1231
     71  CA        -5.4440    0.7490   58.9060 C.3    88  VAL88       0.1692
     72  C         -5.7760    2.0790   58.2190 C.2    88  VAL88       0.2591
     73  O         -6.9370    2.4460   58.1020 O.2    88  VAL88      -0.2718
     74  CB        -5.8730   -0.4340   57.9930 C.3    88  VAL88       0.0266
     75  CG1       -5.2320   -0.3090   56.6260 C.3    88  VAL88       0.0020
     76  CG2       -5.4960   -1.7700   58.6180 C.3    88  VAL88       0.0020
     77  N         -4.7670    2.7950   57.7420 N.am   89  LEU89      -0.1980
     78  CA        -5.0200    4.0490   57.0370 C.3    89  LEU89       0.1596
     79  C         -5.9480    3.8410   55.8270 C.2    89  LEU89       0.2287
     80  O         -5.7630    2.9210   55.0280 O.2    89  LEU89      -0.2864
     81  CB        -3.7190    4.7240   56.5900 C.3    89  LEU89       0.0297
     82  CG        -3.8570    6.2140   56.2300 C.3    89  LEU89       0.0022
     83  CD1       -4.4260    7.0190   57.3810 C.3    89  LEU89       0.0001
     84  CD2       -2.5470    6.8180   55.7050 C.3    89  LEU89       0.0001
     85  N         -3.3210   12.4610   45.6410 N.3   104  VAL104     -0.1245
     86  CA        -3.7460   11.4120   46.5780 C.3   104  VAL104      0.1561
     87  C         -4.3120   12.0340   47.8680 C.2   104  VAL104      0.2260
     88  O         -3.6460   12.8480   48.5130 O.2   104  VAL104     -0.2867
     89  CB        -2.5880   10.4210   46.8830 C.3   104  VAL104      0.0252
     90  CG1       -2.9090    9.5740   48.1110 C.3   104  VAL104      0.0019
     91  CG2       -2.3090    9.5270   45.6810 C.3   104  VAL104      0.0019
     92  N         -5.8580   11.5990   51.7580 N.3   106  LEU106     -0.1231
     93  CA        -6.0290   10.8120   52.9790 C.3   106  LEU106      0.1678
     94  C         -6.6190   11.5680   54.1760 C.2   106  LEU106      0.2434
     95  O         -6.3960   12.7680   54.3470 O.2   106  LEU106     -0.2733
     96  CB        -4.6870   10.1860   53.3920 C.3   106  LEU106      0.0284
     97  CG        -3.8840    9.5100   52.2800 C.3   106  LEU106      0.0019
     98  CD1       -2.4820   10.0900   52.1530 C.3   106  LEU106      0.0001
     99  CD2       -3.8380    8.0170   52.5050 C.3   106  LEU106      0.0001
    100  N         -7.3520   10.8500   55.0450 N.am  107  PRO107     -0.2718
    101  CA        -7.8670   11.5100   56.2480 C.3   107  PRO107      0.1535
    102  C         -6.6870   12.0730   57.0600 C.2   107  PRO107      0.2599
    103  O         -5.5770   11.5270   57.0300 O.2   107  PRO107     -0.2715
    104  CB        -8.5460   10.3710   57.0060 C.3   107  PRO107      0.0310
    105  CG        -7.8810    9.1280   56.5110 C.3   107  PRO107      0.0237
    106  CD        -7.5710    9.3930   55.0710 C.3   107  PRO107      0.0939
    107  N         -6.9130   13.1970   57.7370 N.am  108  TYR108     -0.1960
    108  CA        -5.8650   13.8530   58.5230 C.3   108  TYR108      0.1771
    109  C         -5.5740   13.1380   59.8340 C.2   108  TYR108      0.2619
    110  O         -6.4840   12.7430   60.5800 O.2   108  TYR108     -0.2715
    111  CB        -6.2340   15.3050   58.8020 C.3   108  TYR108      0.0574
    112  CG        -5.1320   16.0680   59.4650 C.ar  108  TYR108     -0.0198
    113  CD1       -3.8850   16.1700   58.8740 C.ar  108  TYR108     -0.0009
    114  CD2       -5.3390   16.7030   60.6760 C.ar  108  TYR108     -0.0009
    115  CE1       -2.8450   16.8330   59.5070 C.ar  108  TYR108      0.0417
    116  CE2       -4.3110   17.4040   61.3030 C.ar  108  TYR108      0.0417
    117  CZ        -3.0730   17.4560   60.7220 C.ar  108  TYR108      0.1957
    118  OH        -2.0630   18.1500   61.3590 O.3   108  TYR108     -0.2866
    119  N         -4.2880   12.9550   60.0990 N.am  109  MET109     -0.1977
    120  CA        -3.8260   12.2670   61.2930 C.3   109  MET109      0.1605
    121  C         -3.1670   13.3200   62.1550 C.2   109  MET109      0.2287
    122  O         -2.0450   13.7450   61.8860 O.2   109  MET109     -0.2864
    123  CB        -2.8400   11.1680   60.9050 C.3   109  MET109      0.0413
    124  CG        -3.4590   10.0530   60.0840 C.3   109  MET109      0.0598
    125  SD        -4.7450    9.2010   60.9910 S.3   109  MET109     -0.1393
    126  CE        -6.0820    9.1330   59.7620 C.3   109  MET109      0.0692
    127  N          0.3510   12.8030   63.8580 N.3   112  GLY112     -0.1225
    128  CA         1.3860   12.3970   62.9230 C.3   112  GLY112      0.1811
    129  C          1.7770   10.9360   63.0560 C.2   112  GLY112      0.2280
    130  O          0.9220   10.0590   63.2370 O.2   112  GLY112     -0.2866
    131  N         -4.8240   -7.1640   57.8680 N.3   144  LEU144     -0.1245
    132  CA        -4.0330   -7.2730   56.6410 C.3   144  LEU144      0.1561
    133  C         -3.5880   -8.6990   56.3330 C.2   144  LEU144      0.2260
    134  O         -3.6940   -9.1660   55.1900 O.2   144  LEU144     -0.2867
    135  CB        -2.8410   -6.3310   56.6960 C.3   144  LEU144      0.0270
    136  CG        -3.2430   -4.8490   56.7580 C.3   144  LEU144      0.0019
    137  CD1       -2.0390   -3.9260   56.9440 C.3   144  LEU144      0.0001
    138  CD2       -4.0400   -4.4570   55.5150 C.3   144  LEU144      0.0001
    139  N         -2.2310   -9.7650   52.7110 N.3   149  PHE149     -0.1241
    140  CA        -1.4810   -8.5740   52.3360 C.3   149  PHE149      0.1605
    141  C         -0.1640   -8.5700   53.0880 C.2   149  PHE149      0.2264
    142  O         -0.1350   -8.7100   54.3080 O.2   149  PHE149     -0.2867
    143  CB        -2.2670   -7.3000   52.6640 C.3   149  PHE149      0.0534
    144  CG        -1.5450   -6.0370   52.3020 C.ar  149  PHE149     -0.0203
    145  CD1       -1.5510   -5.5690   51.0050 C.ar  149  PHE149     -0.0042
    146  CD2       -0.8440   -5.3200   53.2680 C.ar  149  PHE149     -0.0042
    147  CE1       -0.8490   -4.4090   50.6820 C.ar  149  PHE149     -0.0003
    148  CE2       -0.1390   -4.1750   52.9460 C.ar  149  PHE149     -0.0003
    149  CZ        -0.1460   -3.7100   51.6710 C.ar  149  PHE149     -0.0000
    150  N          2.8970   -6.4350   54.2320 N.3   151  HIS151     -0.1241
    151  CA         3.2800   -5.0370   54.4150 C.3   151  HIS151      0.1621
    152  C          4.6630   -4.7690   53.8680 C.2   151  HIS151      0.2264
    153  O          4.8340   -3.9180   53.0050 O.2   151  HIS151     -0.2867
    154  CB         3.2150   -4.6350   55.8840 C.3   151  HIS151      0.0745
    155  CG         3.1190   -3.1580   56.1000 C.ar  151  HIS151      0.0817
    156  ND1        4.1810   -2.3030   55.8890 N.ar  151  HIS151     -0.2268
    157  CD2        2.0920   -2.3840   56.5250 C.ar  151  HIS151      0.1154
    158  CE1        3.8140   -1.0660   56.1720 C.ar  151  HIS151      0.1986
    159  NE2        2.5480   -1.0890   56.5580 N.ar  151  HIS151     -0.2212
    160  N          0.3260    5.7620   61.7750 N.3   160  MET160     -0.1245
    161  CA        -0.2130    7.0960   62.0440 C.3   160  MET160      0.1570
    162  C         -1.0250    7.1010   63.3290 C.2   160  MET160      0.2261
    163  O         -1.5320    6.0710   63.7550 O.2   160  MET160     -0.2867
    164  CB        -1.0760    7.6030   60.8860 C.3   160  MET160      0.0387
    165  CG        -0.3870    7.6110   59.5290 C.3   160  MET160      0.0595
    166  SD         1.1840    8.4810   59.5750 S.3   160  MET160     -0.1393
    167  CE         0.6490   10.2150   59.8360 C.3   160  MET160      0.0692
    168  N         -2.1300    1.8200   60.7660 N.3   169  VAL169     -0.1231
    169  CA        -1.0260    1.2130   60.0380 C.3   169  VAL169      0.1692
    170  C         -0.9890    1.7370   58.6000 C.2   169  VAL169      0.2592
    171  O         -2.0080    1.7490   57.8910 O.2   169  VAL169     -0.2718
    172  CB        -1.0830   -0.3450   60.0880 C.3   169  VAL169      0.0266
    173  CG1        0.1480   -0.9560   59.4340 C.3   169  VAL169      0.0020
    174  CG2       -1.1900   -0.8450   61.5210 C.3   169  VAL169      0.0020
    175  N          0.1800    2.2020   58.1720 N.am  170  ALA170     -0.1966
    176  CA         0.2960    2.7360   56.8230 C.3   170  ALA170      0.1728
    177  C          1.6730    2.5150   56.1970 C.2   170  ALA170      0.2616
    178  O          2.4600    1.7000   56.6690 O.2   170  ALA170     -0.2715
    179  CB        -0.0940    4.2140   56.7980 C.3   170  ALA170      0.0334
    180  N          1.9260    3.2040   55.0930 N.am  171  ASP171     -0.1957
    181  CA         3.2000    3.1360   54.4000 C.3   171  ASP171      0.1840
    182  C          3.4230    4.4620   53.6850 C.2   171  ASP171      0.2622
    183  O          2.6980    4.8180   52.7390 O.2   171  ASP171     -0.2715
    184  CB         3.2540    1.9650   53.4230 C.3   171  ASP171      0.1450
    185  CG         4.6790    1.5060   53.1420 C.2   171  ASP171      0.3671
    186  OD1        5.5960    2.3570   53.1720 O.co2 171  ASP171     -0.2456
    187  OD2        4.8890    0.2890   52.9250 O.co2 171  ASP171     -0.2456
    188  N          4.3860    5.2200   54.1960 N.am  172  PHE172     -0.1974
    189  CA         4.6840    6.5330   53.6650 C.3   172  PHE172      0.1639
    190  C          5.2150    6.5220   52.2510 C.2   172  PHE172      0.2290
    191  O          6.2510    7.1240   51.9750 O.2   172  PHE172     -0.2864
    192  CB         5.6620    7.2630   54.5770 C.3   172  PHE172      0.0560
    193  CG         5.0050    8.2740   55.4630 C.ar  172  PHE172     -0.0200
    194  CD1        4.9310    8.0700   56.8300 C.ar  172  PHE172     -0.0042
    195  CD2        4.4370    9.4160   54.9200 C.ar  172  PHE172     -0.0042
    196  CE1        4.3380    8.9950   57.6430 C.ar  172  PHE172     -0.0003
    197  CE2        3.8310   10.3480   55.7260 C.ar  172  PHE172     -0.0003
    198  CZ         3.7850   10.1410   57.0910 C.ar  172  PHE172     -0.0000
@<TRIPOS>BOND
     1    34    35    1
     2    35    38    1
     3    35    36    1
     4    38    39    1
     5    85    86    1
     6    91    89    1
     7    36    37    2
     8    43    44    1
     9    39    40    1
    10    50    48    1
    11    28    27    2
    12    86    89    1
    13    86    87    1
    14    89    90    1
    15    27    26    1
    16    44    47    1
    17    44    45    1
    18    47    48    1
    19    47    49    1
    20    87    88    2
    21    40    41   ar
    22    40    42   ar
    23    32    33    1
    24    32    31    1
    25    45    51   am
    26    45    46    2
    27    26    25    1
    28    26    29    1
    29    51    52    1
    30    30    29    1
    31    30    31    1
    32    53    52    1
    33    53    54    2
    34    52    55    1
    35    56    55    1
    36    56    57    1
    37    13    14    1
    38   147   145   ar
    39   147   149   ar
    40   145   144   ar
    41    57    58    1
    42    14    15    1
    43    14    17    1
    44   149   148   ar
    45    92    93    1
    46    23    22    2
    47    15    16    2
    48   191   190    2
    49    69    67   ar
    50    69    68   ar
    51    67    65   ar
    52    98    97    1
    53    18    17    1
    54    59    60    1
    55   190   189    1
    56    97    99    1
    57    97    96    1
    58   144   143    1
    59   144   146   ar
    60    12    11    2
    61    22    21    1
    62   140   143    1
    63   140   139    1
    64   140   141    1
    65    68    66   ar
    66    17    19    1
    67    65    64   ar
    68   183   182    2
    69   187   185   ar
    70    66    64   ar
    71   148   146   ar
    72    93    96    1
    73    93    94    1
    74    64    63    1
    75   153   152    2
    76   141   142    2
    77   185   186   ar
    78   185   184    1
    79    11    10    1
    80   184   181    1
    81    63    60    1
    82    60    61    1
    83   189   188    1
    84   189   192    1
    85   182   188   am
    86   182   181    1
    87    21    20    1
    88    21    24    1
    89   152   151    1
    90    94    95    2
    91    94   100   am
    92   150   151    1
    93    10     9    1
    94   181   180    1
    95   151   154    1
    96    61    62    2
    97   192   193    1
    98   195   193   ar
    99   195   197   ar
   100     9     3   am
   101    80    79    2
   102   100   106    1
   103   100   101    1
   104   106   105    1
   105   180   177   am
   106   134   133    2
   107   193   194   ar
   108   138   136    1
   109     1     2    1
   110    84    82    1
   111   197   198   ar
   112    79    78    1
   113   154   155    1
   114   156   155   ar
   115   156   158   ar
   116     3     4    2
   117     3     2    1
   118   155   157   ar
   119   158   159   ar
   120   177   178    2
   121   177   176    1
   122    82    81    1
   123    82    83    1
   124   101   104    1
   125   101   102    1
   126     6     8    1
   127     6     5    1
   128   133   132    1
   129   105   104    1
   130   157   159   ar
   131    81    78    1
   132     2     5    1
   133    75    74    1
   134   132   135    1
   135   132   131    1
   136   135   136    1
   137   136   137    1
   138   179   176    1
   139   176   175    1
   140   194   196   ar
   141   103   102    2
   142    78    77    1
   143   102   107   am
   144   198   196   ar
   145     5     7    1
   146   107   108    1
   147    77    72   am
   148   171   170    2
   149    74    76    1
   150    74    71    1
   151    73    72    2
   152   175   170   am
   153    72    71    1
   154   108   111    1
   155   108   109    1
   156   170   169    1
   157   111   112    1
   158   113   112   ar
   159   113   115   ar
   160    71    70    1
   161   173   172    1
   162   112   114   ar
   163   115   117   ar
   164   165   166    1
   165   165   164    1
   166   166   167    1
   167   126   125    1
   168   109   119   am
   169   109   110    2
   170   169   172    1
   171   169   168    1
   172   124   123    1
   173   124   125    1
   174   172   174    1
   175   119   120    1
   176   114   116   ar
   177   117   116   ar
   178   117   118    1
   179   164   161    1
   180   123   120    1
   181   120   121    1
   182   160   161    1
   183   122   121    2
   184   161   162    1
   185   128   129    1
   186   128   127    1
   187   129   130    2
   188   162   163    2
