@<TRIPOS>MOLECULE
tmp/3ctjA00.pdb
 202 192 0 0 0
SMALL
GASTEIGER

@<TRIPOS>ATOM
      1  N          1.9510   19.3440   54.4370 N.3    34  ILE34      -0.1245
      2  CA         2.5000   18.5790   55.5570 C.3    34  ILE34       0.1561
      3  C          3.4050   17.4250   55.1240 C.2    34  ILE34       0.2260
      4  O          4.0720   16.8120   55.9600 O.2    34  ILE34      -0.2867
      5  CB         1.3870   18.0670   56.5020 C.3    34  ILE34       0.0252
      6  CG1        0.0250   18.1050   55.8080 C.3    34  ILE34       0.0019
      7  CG2        1.3710   18.8630   57.8010 C.3    34  ILE34       0.0019
      8  CD1       -0.8490   16.9100   56.1160 C.3    34  ILE34       0.0001
      9  N          1.5720   16.3880   50.1020 N.3    42  VAL42      -0.1245
     10  CA         0.3160   16.3310   50.8310 C.3    42  VAL42       0.1561
     11  C         -0.0080   17.6390   51.5400 C.2    42  VAL42       0.2260
     12  O          0.7830   18.1550   52.3300 O.2    42  VAL42      -0.2867
     13  CB         0.2440   15.1130   51.7670 C.3    42  VAL42       0.0252
     14  CG1       -1.2050   14.7060   51.9930 C.3    42  VAL42       0.0019
     15  CG2        1.0380   13.9560   51.1860 C.3    42  VAL42       0.0019
     16  N         -6.2000   14.5840   54.5970 N.3    58  ALA58      -0.1245
     17  CA        -4.9400   14.8150   53.9130 C.3    58  ALA58       0.1562
     18  C         -5.1030   14.3610   52.4700 C.2    58  ALA58       0.2260
     19  O         -5.3900   13.1920   52.2150 O.2    58  ALA58      -0.2867
     20  CB        -3.8190   14.0350   54.5900 C.3    58  ALA58       0.0290
     21  N         -3.7000   13.5780   48.7050 N.3    60  LYS60      -0.1245
     22  CA        -2.4740   13.1430   48.0470 C.3    60  LYS60       0.1561
     23  C         -2.4810   13.5300   46.5700 C.2    60  LYS60       0.2260
     24  O         -3.2780   13.0160   45.7860 O.2    60  LYS60      -0.2867
     25  CB        -2.2960   11.6270   48.1910 C.3    60  LYS60       0.0271
     26  CG        -0.9770   11.2090   48.8180 C.3    60  LYS60       0.0035
     27  CD        -0.5720    9.8170   48.3600 C.3    60  LYS60       0.0206
     28  CE         0.0120    9.8490   46.9540 C.3    60  LYS60       0.1093
     29  NZ         1.2960    9.0970   46.8410 N.3    60  LYS60      -0.1314
     30  N         -1.5410    2.6750   44.0850 N.3    77  GLU77      -0.1245
     31  CA        -1.1430    2.8270   45.4790 C.3    77  GLU77       0.1567
     32  C         -2.2850    3.3890   46.3120 C.2    77  GLU77       0.2260
     33  O         -2.1400    3.5860   47.5170 O.2    77  GLU77      -0.2867
     34  CB         0.0710    3.7500   45.5960 C.3    77  GLU77       0.0388
     35  CG        -0.2710    5.2420   45.5440 C.3    77  GLU77       0.1160
     36  CD        -0.6190    5.8250   46.9100 C.2    77  GLU77       0.3649
     37  OE1        0.2940    5.9630   47.7540 O.co2  77  GLU77      -0.2457
     38  OE2       -1.8080    6.1440   47.1380 O.co2  77  GLU77      -0.2457
     39  N         -5.0410    0.3220   46.8610 N.3    80  ILE80      -0.1231
     40  CA        -4.4560   -0.6400   47.7880 C.3    80  ILE80       0.1692
     41  C         -5.2570   -0.6120   49.0860 C.2    80  ILE80       0.2591
     42  O         -5.4190   -1.6350   49.7460 O.2    80  ILE80      -0.2718
     43  CB        -2.9590   -0.3400   48.0600 C.3    80  ILE80       0.0266
     44  CG1       -2.1480   -1.6340   48.0790 C.3    80  ILE80       0.0019
     45  CG2       -2.7860    0.3650   49.3940 C.3    80  ILE80       0.0020
     46  CD1       -0.7020   -1.4370   48.4890 C.3    80  ILE80       0.0001
     47  N         -5.7830    0.5630   49.4220 N.am   81  MET81      -0.1979
     48  CA        -6.5440    0.7470   50.6520 C.3    81  MET81       0.1605
     49  C         -8.0570    0.6430   50.5080 C.2    81  MET81       0.2287
     50  O         -8.7680    0.6760   51.5040 O.2    81  MET81      -0.2864
     51  CB        -6.1840    2.0840   51.3010 C.3    81  MET81       0.0413
     52  CG        -4.7040    2.2720   51.5200 C.3    81  MET81       0.0598
     53  SD        -4.1970    3.9640   51.2580 S.3    81  MET81      -0.1393
     54  CE        -4.6770    4.6890   52.8080 C.3    81  MET81       0.0692
     55  N         -9.4020   -1.8490   52.7350 N.3    84  PHE84      -0.1241
     56  CA        -8.8610   -1.7090   54.0820 C.3    84  PHE84       0.1605
     57  C         -9.8360   -0.9290   54.9580 C.2    84  PHE84       0.2264
     58  O         -9.6860    0.2850   55.1240 O.2    84  PHE84      -0.2867
     59  CB        -7.5290   -0.9500   54.0650 C.3    84  PHE84       0.0534
     60  CG        -6.3890   -1.7220   53.4610 C.ar   84  PHE84      -0.0203
     61  CD1       -6.5890   -3.0000   52.9510 C.ar   84  PHE84      -0.0042
     62  CD2       -5.1210   -1.1550   53.3860 C.ar   84  PHE84      -0.0042
     63  CE1       -5.5480   -3.6960   52.3790 C.ar   84  PHE84      -0.0003
     64  CE2       -4.0740   -1.8430   52.8190 C.ar   84  PHE84      -0.0003
     65  CZ        -4.2840   -3.1190   52.3120 C.ar   84  PHE84      -0.0000
     66  N         -6.3350    0.5410   60.7370 N.3    89  VAL89      -0.1231
     67  CA        -5.6530    0.5390   59.4390 C.3    89  VAL89       0.1692
     68  C         -5.9900    1.8390   58.7240 C.2    89  VAL89       0.2591
     69  O         -7.1400    2.2460   58.7050 O.2    89  VAL89      -0.2718
     70  CB        -6.0640   -0.6920   58.5860 C.3    89  VAL89       0.0266
     71  CG1       -5.5790   -0.5370   57.1720 C.3    89  VAL89       0.0020
     72  CG2       -5.5250   -1.9810   59.1990 C.3    89  VAL89       0.0020
     73  N         -4.9850    2.5100   58.1760 N.am   90  LEU90      -0.1980
     74  CA        -5.2150    3.7790   57.4970 C.3    90  LEU90       0.1596
     75  C         -5.9600    3.5710   56.1890 C.2    90  LEU90       0.2287
     76  O         -5.4380    2.9530   55.2660 O.2    90  LEU90      -0.2864
     77  CB        -3.9000    4.4980   57.2240 C.3    90  LEU90       0.0297
     78  CG        -4.1090    5.8340   56.5130 C.3    90  LEU90       0.0022
     79  CD1       -4.8190    6.8120   57.4480 C.3    90  LEU90       0.0001
     80  CD2       -2.7890    6.3930   56.0040 C.3    90  LEU90       0.0001
     81  N         -5.8100   11.6950   45.9190 N.3   105  VAL105     -0.1245
     82  CA        -6.0540   10.5790   46.8360 C.3   105  VAL105      0.1561
     83  C         -6.3120   11.2090   48.2010 C.2   105  VAL105      0.2260
     84  O         -5.4730   11.9550   48.7140 O.2   105  VAL105     -0.2867
     85  CB        -4.8490    9.6040   46.8970 C.3   105  VAL105      0.0252
     86  CG1       -4.9740    8.6780   48.0970 C.3   105  VAL105      0.0019
     87  CG2       -4.7350    8.7960   45.6040 C.3   105  VAL105      0.0019
     88  N         -7.0610   10.9370   52.2290 N.3   107  LEU107     -0.1231
     89  CA        -6.8960   10.1350   53.4340 C.3   107  LEU107      0.1678
     90  C         -7.4190   10.8620   54.6650 C.2   107  LEU107      0.2434
     91  O         -7.4060   12.0990   54.7380 O.2   107  LEU107     -0.2733
     92  CB        -5.4150    9.8080   53.6470 C.3   107  LEU107      0.0284
     93  CG        -4.7790    8.9570   52.5510 C.3   107  LEU107      0.0019
     94  CD1       -3.2680    8.8860   52.7090 C.3   107  LEU107      0.0001
     95  CD2       -5.4200    7.5680   52.5100 C.3   107  LEU107      0.0001
     96  N         -7.8600   10.0940   55.6720 N.am  108  PRO108     -0.2718
     97  CA        -8.3150   10.7690   56.8930 C.3   108  PRO108      0.1535
     98  C         -7.1200   11.4930   57.5100 C.2   108  PRO108      0.2599
     99  O         -6.0140   10.9470   57.5550 O.2   108  PRO108     -0.2715
    100  CB        -8.7410    9.6100   57.8020 C.3   108  PRO108      0.0310
    101  CG        -8.6970    8.3640   56.9520 C.3   108  PRO108      0.0237
    102  CD        -7.7400    8.6380   55.8460 C.3   108  PRO108      0.0939
    103  N         -7.3190   12.7310   57.9490 N.am  109  TYR109     -0.1960
    104  CA        -6.2310   13.4780   58.5660 C.3   109  TYR109      0.1771
    105  C         -5.9350   12.9350   59.9720 C.2   109  TYR109      0.2619
    106  O         -6.8410   12.5180   60.6880 O.2   109  TYR109     -0.2715
    107  CB        -6.5290   14.9760   58.6020 C.3   109  TYR109      0.0574
    108  CG        -5.4450   15.7690   59.2900 C.ar  109  TYR109     -0.0198
    109  CD1       -4.1680   15.8460   58.7470 C.ar  109  TYR109     -0.0009
    110  CD2       -5.6820   16.3930   60.5130 C.ar  109  TYR109     -0.0009
    111  CE1       -3.1550   16.5330   59.3940 C.ar  109  TYR109      0.0417
    112  CE2       -4.6830   17.0990   61.1610 C.ar  109  TYR109      0.0417
    113  CZ        -3.4130   17.1550   60.6050 C.ar  109  TYR109      0.1957
    114  OH        -2.4040   17.8420   61.2540 O.3   109  TYR109     -0.2866
    115  N         -4.6580   12.9180   60.3390 N.am  110  MET110     -0.1977
    116  CA        -4.2100   12.3900   61.6230 C.3   110  MET110      0.1605
    117  C         -3.5480   13.4700   62.4510 C.2   110  MET110      0.2287
    118  O         -2.4170   13.8500   62.1990 O.2   110  MET110     -0.2864
    119  CB        -3.2170   11.2510   61.3890 C.3   110  MET110      0.0413
    120  CG        -3.7220   10.1970   60.4280 C.3   110  MET110      0.0598
    121  SD        -4.6630    8.9440   61.3100 S.3   110  MET110     -0.1393
    122  CE        -6.3650    9.4310   60.8980 C.3   110  MET110      0.0692
    123  N          0.1190   12.8990   63.9190 N.3   113  GLY113     -0.1210
    124  CA         1.1370   12.4320   62.9950 C.3   113  GLY113      0.1956
    125  C          1.5550   10.9980   63.2700 C.2   113  GLY113      0.2611
    126  O          0.7270   10.1690   63.6670 O.2   113  GLY113     -0.2717
    127  N          2.8330   10.6920   63.0630 N.am  114  ASP114     -0.1973
    128  CA         3.2940    9.3210   63.2490 C.3   114  ASP114      0.1709
    129  C          3.6350    8.9030   64.6800 C.2   114  ASP114      0.2293
    130  O          4.1020    9.7010   65.4910 O.2   114  ASP114     -0.2864
    131  CB         4.4080    8.9620   62.2770 C.3   114  ASP114      0.1436
    132  CG         5.7300    9.5090   62.7000 C.2   114  ASP114      0.3671
    133  OD1        6.3020    8.9880   63.6810 O.co2 114  ASP114     -0.2456
    134  OD2        6.1700   10.4960   62.0820 O.co2 114  ASP114     -0.2456
    135  N         -5.0170   -7.1520   58.2920 N.3   145  LEU145     -0.1245
    136  CA        -4.2590   -7.2310   57.0370 C.3   145  LEU145      0.1561
    137  C         -3.8230   -8.6490   56.7020 C.2   145  LEU145      0.2260
    138  O         -3.9230   -9.0750   55.5640 O.2   145  LEU145     -0.2867
    139  CB        -3.0430   -6.2920   57.0600 C.3   145  LEU145      0.0270
    140  CG        -3.2820   -4.7960   57.3130 C.3   145  LEU145      0.0019
    141  CD1       -1.9520   -4.0320   57.4100 C.3   145  LEU145      0.0001
    142  CD2       -4.1590   -4.2010   56.2240 C.3   145  LEU145      0.0001
    143  N         -2.4150   -9.6660   53.0800 N.3   150  PHE150     -0.1241
    144  CA        -1.6510   -8.4790   52.7320 C.3   150  PHE150      0.1605
    145  C         -0.3660   -8.4410   53.5660 C.2   150  PHE150      0.2264
    146  O         -0.4350   -8.3720   54.7850 O.2   150  PHE150     -0.2867
    147  CB        -2.4990   -7.2380   52.9980 C.3   150  PHE150      0.0534
    148  CG        -1.8010   -5.9530   52.6810 C.ar  150  PHE150     -0.0203
    149  CD1       -1.8720   -5.4080   51.4090 C.ar  150  PHE150     -0.0042
    150  CD2       -1.0470   -5.3010   53.6520 C.ar  150  PHE150     -0.0042
    151  CE1       -1.2110   -4.2240   51.1180 C.ar  150  PHE150     -0.0003
    152  CE2       -0.3670   -4.1240   53.3580 C.ar  150  PHE150     -0.0003
    153  CZ        -0.4510   -3.5820   52.0920 C.ar  150  PHE150     -0.0000
    154  N          2.7610   -6.4960   54.7280 N.3   152  HIS152     -0.1241
    155  CA         3.1140   -5.0930   54.8430 C.3   152  HIS152      0.1621
    156  C          4.5080   -4.7650   54.2710 C.2   152  HIS152      0.2264
    157  O          4.6350   -3.9420   53.3550 O.2   152  HIS152     -0.2867
    158  CB         2.9740   -4.6650   56.2940 C.3   152  HIS152      0.0745
    159  CG         3.0310   -3.1870   56.4990 C.ar  152  HIS152      0.0817
    160  ND1        4.1860   -2.4570   56.3130 N.ar  152  HIS152     -0.2268
    161  CD2        2.1010   -2.3150   56.9550 C.ar  152  HIS152      0.1154
    162  CE1        3.9530   -1.1910   56.6090 C.ar  152  HIS152      0.1986
    163  NE2        2.6950   -1.0780   56.9960 N.ar  152  HIS152     -0.2212
    164  N          0.1780    5.8770   62.1440 N.3   161  MET161     -0.1245
    165  CA        -0.4200    7.1750   62.4360 C.3   161  MET161      0.1570
    166  C         -1.2260    7.1100   63.7220 C.2   161  MET161      0.2261
    167  O         -1.7750    6.0610   64.0730 O.2   161  MET161     -0.2867
    168  CB        -1.3280    7.6390   61.2980 C.3   161  MET161      0.0387
    169  CG        -0.6860    7.6580   59.9190 C.3   161  MET161      0.0595
    170  SD         0.8730    8.5570   59.8600 S.3   161  MET161     -0.1393
    171  CE         0.3150   10.3090   60.0800 C.3   161  MET161      0.0692
    172  N         -2.3380    1.6900   61.2190 N.3   170  VAL170     -0.1231
    173  CA        -1.1880    1.1520   60.5070 C.3   170  VAL170      0.1692
    174  C         -1.1640    1.7870   59.1220 C.2   170  VAL170      0.2592
    175  O         -2.1990    1.9400   58.4700 O.2   170  VAL170     -0.2718
    176  CB        -1.2530   -0.3940   60.3950 C.3   170  VAL170      0.0266
    177  CG1       -0.2090   -0.8970   59.3890 C.3   170  VAL170      0.0020
    178  CG2       -1.0380   -1.0370   61.7400 C.3   170  VAL170      0.0020
    179  N          0.0190    2.1660   58.6650 N.am  171  ALA171     -0.1966
    180  CA         0.1080    2.8070   57.3650 C.3   171  ALA171      0.1728
    181  C          1.4520    2.5270   56.7440 C.2   171  ALA171      0.2616
    182  O          2.2150    1.7030   57.2380 O.2   171  ALA171     -0.2715
    183  CB        -0.1100    4.3160   57.5180 C.3   171  ALA171      0.0334
    184  N          1.7410    3.2210   55.6550 N.am  172  ASP172     -0.1957
    185  CA         3.0350    3.1270   54.9990 C.3   172  ASP172      0.1840
    186  C          3.2440    4.4180   54.2410 C.2   172  ASP172      0.2622
    187  O          2.5390    4.6910   53.2720 O.2   172  ASP172     -0.2715
    188  CB         3.1030    1.9390   54.0430 C.3   172  ASP172      0.1450
    189  CG         4.5360    1.5910   53.6480 C.2   172  ASP172      0.3671
    190  OD1        5.3870    2.5080   53.6220 O.co2 172  ASP172     -0.2456
    191  OD2        4.8190    0.3960   53.3990 O.co2 172  ASP172     -0.2456
    192  N          4.1700    5.2390   54.7220 N.am  173  PHE173     -0.1974
    193  CA         4.4700    6.5170   54.0810 C.3   173  PHE173      0.1639
    194  C          4.9040    6.3220   52.6340 C.2   173  PHE173      0.2290
    195  O          6.0900    6.3770   52.3230 O.2   173  PHE173     -0.2864
    196  CB         5.5520    7.2690   54.8510 C.3   173  PHE173      0.0560
    197  CG         5.0170    8.1090   55.9670 C.ar  173  PHE173     -0.0200
    198  CD1        4.6170    7.5250   57.1550 C.ar  173  PHE173     -0.0042
    199  CD2        4.8560    9.4740   55.8090 C.ar  173  PHE173     -0.0042
    200  CE1        4.0950    8.2950   58.1810 C.ar  173  PHE173     -0.0003
    201  CE2        4.3520   10.2500   56.8360 C.ar  173  PHE173     -0.0003
    202  CZ         3.9690    9.6590   58.0200 C.ar  173  PHE173     -0.0000
@<TRIPOS>BOND
     1    30    31    1
     2    31    34    1
     3    31    32    1
     4    35    34    1
     5    35    36    1
     6    87    85    1
     7    24    23    2
     8    81    82    1
     9    32    33    2
    10    23    22    1
    11    82    85    1
    12    82    83    1
    13    29    28    1
    14    39    40    1
    15    85    86    1
    16    36    38   ar
    17    36    37   ar
    18    28    27    1
    19    40    43    1
    20    40    41    1
    21    22    25    1
    22    22    21    1
    23    43    44    1
    24    43    45    1
    25    44    46    1
    26    25    26    1
    27    83    84    2
    28    27    26    1
    29    41    47   am
    30    41    42    2
    31    47    48    1
    32     9    10    1
    33    49    48    1
    34    49    50    2
    35    48    51    1
    36    10    11    1
    37    10    13    1
    38   151   149   ar
    39   151   153   ar
    40    15    13    1
    41    53    52    1
    42    53    54    1
    43    51    52    1
    44   149   148   ar
    45    11    12    2
    46    13    14    1
    47   153   152   ar
    48    19    18    2
    49    88    89    1
    50    65    63   ar
    51    65    64   ar
    52   195   194    2
    53    63    61   ar
    54    18    17    1
    55    95    93    1
    56    93    94    1
    57    93    92    1
    58   194   193    1
    59   148   147    1
    60   148   150   ar
    61   144   147    1
    62   144   143    1
    63   144   145    1
    64    55    56    1
    65    64    62   ar
    66    61    60   ar
    67   187   186    2
    68   157   156    2
    69   152   150   ar
    70    62    60   ar
    71   191   189   ar
    72    89    92    1
    73    89    90    1
    74    60    59    1
    75   145   146    2
    76   190   189   ar
    77   189   188    1
    78    17    20    1
    79    17    16    1
    80   188   185    1
    81    59    56    1
    82   193   192    1
    83   193   196    1
    84    56    57    1
    85   186   192   am
    86   186   185    1
    87   156   155    1
    88     1     2    1
    89    90    91    2
    90    90    96   am
    91   154   155    1
    92   155   158    1
    93   196   197    1
    94    57    58    2
    95   185   184    1
    96     3     2    1
    97     3     4    2
    98    76    75    2
    99     2     5    1
   100   138   137    2
   101   184   181   am
   102    96   102    1
   103    96    97    1
   104     6     8    1
   105     6     5    1
   106   199   197   ar
   107   199   201   ar
   108   102   101    1
   109   197   198   ar
   110    80    78    1
   111    75    74    1
   112   142   140    1
   113   158   159    1
   114   160   159   ar
   115   160   162   ar
   116   159   161   ar
   117     5     7    1
   118    78    77    1
   119    78    79    1
   120   162   163   ar
   121   137   136    1
   122   181   182    2
   123   181   180    1
   124   201   202   ar
   125    97    98    1
   126    97   100    1
   127   101   100    1
   128   161   163   ar
   129   136   139    1
   130   136   135    1
   131   139   140    1
   132   198   200   ar
   133    71    70    1
   134    77    74    1
   135   140   141    1
   136   180   183    1
   137   180   179    1
   138    74    73    1
   139    98    99    2
   140    98   103   am
   141   103   104    1
   142   202   200   ar
   143    73    68   am
   144   175   174    2
   145   104   107    1
   146   104   105    1
   147    70    72    1
   148    70    67    1
   149   107   108    1
   150   179   174   am
   151    69    68    2
   152    68    67    1
   153   109   108   ar
   154   109   111   ar
   155   174   173    1
   156   108   110   ar
   157   177   176    1
   158   111   113   ar
   159    67    66    1
   160   170   169    1
   161   170   171    1
   162   169   168    1
   163   105   115   am
   164   105   106    2
   165   115   116    1
   166   176   173    1
   167   176   178    1
   168   120   121    1
   169   120   119    1
   170   173   172    1
   171   110   112   ar
   172   113   112   ar
   173   113   114    1
   174   122   121    1
   175   168   165    1
   176   119   116    1
   177   116   117    1
   178   134   132   ar
   179   164   165    1
   180   118   117    2
   181   131   132    1
   182   131   128    1
   183   165   166    1
   184   132   133   ar
   185   124   125    1
   186   124   123    1
   187   127   128    1
   188   127   125   am
   189   128   129    1
   190   125   126    2
   191   166   167    2
   192   129   130    2
