@<TRIPOS>MOLECULE
tmp/3ctlC00.pdb
 172 163 0 0 0
SMALL
GASTEIGER

@<TRIPOS>ATOM
      1  N         56.9440   95.5230   40.7450 N.3     6  SER6       -0.1217
      2  CA        56.3260   96.4900   39.8470 C.3     6  SER6        0.1889
      3  C         56.5100   96.0120   38.4060 C.2     6  SER6        0.2288
      4  O         57.5790   96.1660   37.8240 O.2     6  SER6       -0.2866
      5  CB        56.9930   97.8500   40.0270 C.3     6  SER6        0.2089
      6  OG        56.4780   98.7800   39.0960 O.3     6  SER6       -0.2183
      7  N         55.7420   97.2020   35.6040 N.3     8  MET8       -0.1230
      8  CA        56.0940   98.1730   34.5710 C.3     8  MET8        0.1702
      9  C         57.6200   98.2150   34.4460 C.2     8  MET8        0.2592
     10  O         58.1700   98.8950   33.5800 O.2     8  MET8       -0.2718
     11  CB        55.5540   99.5710   34.9130 C.3     8  MET8        0.0401
     12  CG        56.2160  100.2500   36.1040 C.3     8  MET8        0.0596
     13  SD        55.5830  101.9420   36.3870 S.3     8  MET8       -0.1393
     14  CE        56.8150  102.9380   35.4580 C.3     8  MET8        0.0692
     15  N         58.2960   97.4720   35.3200 N.am    9  CYS9       -0.1970
     16  CA        59.7550   97.4030   35.3220 C.3     9  CYS9        0.1712
     17  C         60.2790   96.0510   34.8160 C.2     9  CYS9        0.2296
     18  O         61.4910   95.8480   34.7090 O.2     9  CYS9       -0.2864
     19  CB        60.2890   97.6430   36.7400 C.3     9  CYS9        0.0983
     20  SG        59.8890   99.2640   37.4770 S.3     9  CYS9       -0.0798
     21  N         52.3060   94.0330   41.3330 N.3    30  HIS30      -0.1241
     22  CA        51.9450   95.4470   41.3260 C.3    30  HIS30       0.1621
     23  C         51.7970   95.9530   39.8950 C.2    30  HIS30       0.2264
     24  O         52.7850   96.1200   39.1820 O.2    30  HIS30      -0.2867
     25  CB        52.9950   96.2930   42.0510 C.3    30  HIS30       0.0745
     26  CG        52.5700   97.7130   42.2570 C.ar   30  HIS30       0.0817
     27  ND1       51.6310   98.0790   43.1960 N.ar   30  HIS30      -0.2268
     28  CD2       52.9130   98.8490   41.6070 C.ar   30  HIS30       0.1154
     29  CE1       51.4130   99.3790   43.1160 C.ar   30  HIS30       0.1986
     30  NE2       52.1790   99.8700   42.1590 N.ar   30  HIS30      -0.2212
     31  N         50.6950   98.9820   37.5810 N.3    32  ASP32      -0.1239
     32  CA        50.4130  100.4070   37.4730 C.3    32  ASP32       0.1674
     33  C         49.5560  100.7410   36.2670 C.2    32  ASP32       0.2266
     34  O         49.9190  100.4440   35.1320 O.2    32  ASP32      -0.2867
     35  CB        51.7190  101.1990   37.3840 C.3    32  ASP32       0.1410
     36  CG        52.5250  101.1350   38.6670 C.2    32  ASP32       0.3668
     37  OD1       53.7310  100.8020   38.5950 O.co2  32  ASP32      -0.2456
     38  OD2       51.9530  101.4180   39.7450 O.co2  32  ASP32      -0.2456
     39  N         48.0180  103.8970   34.4450 N.3    34  MET34      -0.1245
     40  CA        48.0400  105.3460   34.3620 C.3    34  MET34       0.1570
     41  C         47.1830  105.9690   33.2690 C.2    34  MET34       0.2261
     42  O         46.9010  105.3800   32.2330 O.2    34  MET34      -0.2867
     43  CB        49.4860  105.8200   34.2550 C.3    34  MET34       0.0387
     44  CG        50.3530  105.2260   35.3530 C.3    34  MET34       0.0595
     45  SD        52.0730  105.6950   35.2880 S.3    34  MET34      -0.1393
     46  CE        52.3410  105.6540   33.6120 C.3    34  MET34       0.0692
     47  N         47.0100   99.4340   40.6590 N.3    63  HIS63      -0.1241
     48  CA        47.1890  100.7720   41.2090 C.3    63  HIS63       0.1621
     49  C         46.5880  101.7380   40.1830 C.2    63  HIS63       0.2264
     50  O         47.1480  101.9530   39.1090 O.2    63  HIS63      -0.2867
     51  CB        48.6960  101.0170   41.4190 C.3    63  HIS63       0.0745
     52  CG        49.0430  102.4010   41.8650 C.ar   63  HIS63       0.0817
     53  ND1       50.3460  102.8030   42.0730 N.ar   63  HIS63      -0.2268
     54  CD2       48.2690  103.4830   42.1240 C.ar   63  HIS63       0.1154
     55  CE1       50.3590  104.0730   42.4380 C.ar   63  HIS63       0.1986
     56  NE2       49.1120  104.5090   42.4770 N.ar   63  HIS63      -0.2212
     57  N         46.1590  105.0510   38.9130 N.3    65  MET65      -0.1245
     58  CA        46.5890  106.4360   38.8270 C.3    65  MET65       0.1570
     59  C         45.8280  107.0610   37.6610 C.2    65  MET65       0.2261
     60  O         46.4060  107.4250   36.6340 O.2    65  MET65      -0.2867
     61  CB        48.0930  106.5120   38.5860 C.3    65  MET65       0.0387
     62  CG        48.9000  106.2430   39.8500 C.3    65  MET65       0.0595
     63  SD        50.6540  106.0290   39.5350 S.3    65  MET65      -0.1393
     64  CE        50.6680  104.3020   39.0390 C.3    65  MET65       0.0692
     65  N         53.1180  106.3640   48.9170 N.3   135  MET135     -0.1245
     66  CA        54.0130  106.7330   47.8280 C.3   135  MET135      0.1570
     67  C         55.1940  107.4080   48.5170 C.2   135  MET135      0.2261
     68  O         55.0010  108.3000   49.3390 O.2   135  MET135     -0.2867
     69  CB        53.3560  107.7450   46.8890 C.3   135  MET135      0.0387
     70  CG        52.1910  107.2310   46.0530 C.3   135  MET135      0.0595
     71  SD        52.6810  105.8930   44.9550 S.3   135  MET135     -0.1393
     72  CE        54.0380  106.6830   44.0160 C.3   135  MET135      0.0692
     73  N         57.5660  108.6080   46.6660 N.3   137  VAL137     -0.1245
     74  CA        58.0660  109.3310   45.5220 C.3   137  VAL137      0.1561
     75  C         56.8170  109.9140   44.8500 C.2   137  VAL137      0.2260
     76  O         55.7490  109.3050   44.9280 O.2   137  VAL137     -0.2867
     77  CB        58.7930  108.3300   44.5920 C.3   137  VAL137      0.0252
     78  CG1       58.0290  108.1470   43.2820 C.3   137  VAL137      0.0019
     79  CG2       60.2060  108.7800   44.3640 C.3   137  VAL137      0.0019
     80  N         54.2170  110.2060   42.2830 N.3   139  PRO139     -0.2102
     81  CA        53.7650  109.2500   41.2700 C.3   139  PRO139      0.1504
     82  C         54.0500  109.5530   39.8120 C.2   139  PRO139      0.2576
     83  O         54.2260  110.7060   39.4190 O.2   139  PRO139     -0.2718
     84  CB        52.2710  109.1390   41.5530 C.3   139  PRO139      0.0282
     85  CG        51.9250  110.5060   42.0040 C.3   139  PRO139      0.0208
     86  CD        53.0570  110.8260   42.9530 C.3   139  PRO139      0.0893
     87  N         54.1030  108.4850   39.0180 N.am  140  GLY140     -0.1943
     88  CA        54.3280  108.6260   37.5940 C.3   140  GLY140      0.2014
     89  C         55.4460  107.8170   36.9670 C.2   140  GLY140      0.2639
     90  O         55.2760  107.2720   35.8680 O.2   140  GLY140     -0.2714
     91  N         56.5840  107.7170   37.6510 N.am  141  PHE141     -0.1959
     92  CA        57.7200  107.0130   37.0710 C.3   141  PHE141      0.1771
     93  C         58.5420  106.1530   38.0230 C.2   141  PHE141      0.2619
     94  O         58.2460  106.0310   39.2150 O.2   141  PHE141     -0.2715
     95  CB        58.6550  108.0370   36.4040 C.3   141  PHE141      0.0574
     96  CG        57.9360  109.2210   35.8100 C.ar  141  PHE141     -0.0200
     97  CD1       57.3900  110.2040   36.6330 C.ar  141  PHE141     -0.0042
     98  CD2       57.7620  109.3270   34.4320 C.ar  141  PHE141     -0.0042
     99  CE1       56.6810  111.2640   36.0940 C.ar  141  PHE141     -0.0003
    100  CE2       57.0520  110.3880   33.8810 C.ar  141  PHE141     -0.0003
    101  CZ        56.5100  111.3570   34.7120 C.ar  141  PHE141     -0.0000
    102  N         59.5880  105.5590   37.4560 N.am  142  ALA142     -0.1963
    103  CA        60.5240  104.7240   38.1930 C.3   142  ALA142      0.1728
    104  C         61.8020  105.5570   38.3160 C.2   142  ALA142      0.2617
    105  O         62.0380  106.4540   37.5010 O.2   142  ALA142     -0.2715
    106  CB        60.8000  103.4290   37.4170 C.3   142  ALA142      0.0334
    107  N         62.6050  105.2780   39.3390 N.am  143  GLY143     -0.1940
    108  CA        63.8450  106.0070   39.5260 C.3   143  GLY143      0.2014
    109  C         63.7230  107.4560   39.9730 C.2   143  GLY143      0.2638
    110  O         64.5130  108.3070   39.5530 O.2   143  GLY143     -0.2714
    111  N         62.7400  107.7560   40.8140 N.am  144  GLN144     -0.1977
    112  CA        62.5740  109.1210   41.3090 C.3   144  GLN144      0.1601
    113  C         63.2100  109.2010   42.6930 C.2   144  GLN144      0.2287
    114  O         63.3700  108.1840   43.3610 O.2   144  GLN144     -0.2864
    115  CB        61.0890  109.4890   41.3860 C.3   144  GLN144      0.0394
    116  CG        60.6700  110.5600   40.3910 C.3   144  GLN144      0.0908
    117  CD        61.0800  110.2100   38.9750 C.2   144  GLN144      0.2608
    118  OE1       60.7030  109.1630   38.4500 O.2   144  GLN144     -0.2717
    119  NE2       61.8630  111.0840   38.3490 N.am  144  GLN144     -0.0878
    120  N         55.6350  102.3500   48.1390 N.3   173  ASP173     -0.1225
    121  CA        55.8040  102.4590   46.6910 C.3   173  ASP173      0.1805
    122  C         56.7340  103.6010   46.2870 C.2   173  ASP173      0.2598
    123  O         56.4170  104.7760   46.4780 O.2   173  ASP173     -0.2718
    124  CB        54.4430  102.6600   46.0150 C.3   173  ASP173      0.1424
    125  CG        54.5180  102.5600   44.4990 C.2   173  ASP173      0.3668
    126  OD1       53.4760  102.7020   43.8320 O.co2 173  ASP173     -0.2456
    127  OD2       55.6230  102.3320   43.9700 O.co2 173  ASP173     -0.2456
    128  N         57.8790  103.2550   45.7140 N.am  174  GLY174     -0.1942
    129  CA        58.8150  104.2780   45.2900 C.3   174  GLY174      0.2014
    130  C         60.1830  104.1300   45.9240 C.2   174  GLY174      0.2640
    131  O         60.3430  104.2670   47.1390 O.2   174  GLY174     -0.2714
    132  N         61.1770  103.8500   45.0880 N.am  175  SER175     -0.1935
    133  CA        62.5540  103.6700   45.5350 C.3   175  SER175      0.2055
    134  C         62.7430  102.7490   46.7470 C.2   175  SER175      0.2643
    135  O         63.3700  103.1340   47.7350 O.2   175  SER175     -0.2714
    136  CB        63.2030  105.0300   45.8190 C.3   175  SER175      0.2130
    137  OG        62.4990  105.7260   46.8320 O.3   175  SER175     -0.2179
    138  N         62.1830  101.5440   46.6740 N.am  176  CYS176     -0.1967
    139  CA        62.3620  100.5570   47.7340 C.3   176  CYS176      0.1712
    140  C         63.6190   99.8200   47.3120 C.2   176  CYS176      0.2296
    141  O         63.5810   98.9850   46.4120 O.2   176  CYS176     -0.2864
    142  CB        61.2000   99.5710   47.7910 C.3   176  CYS176      0.0983
    143  SG        59.7790  100.1700   48.7070 S.3   176  CYS176     -0.0798
    144  N         57.0500   97.3510   47.3960 N.3   193  ILE193     -0.1245
    145  CA        56.7770   97.2870   45.9720 C.3   193  ILE193      0.1561
    146  C         58.1870   97.4470   45.4230 C.2   193  ILE193      0.2260
    147  O         58.8290   98.4820   45.6120 O.2   193  ILE193     -0.2867
    148  CB        55.8710   98.4360   45.4860 C.3   193  ILE193      0.0252
    149  CG1       54.4200   98.1560   45.8920 C.3   193  ILE193      0.0019
    150  CG2       55.9880   98.5820   43.9760 C.3   193  ILE193      0.0019
    151  CD1       53.4740   99.2880   45.6090 C.3   193  ILE193      0.0001
    152  N         60.8700   97.6350   42.3320 N.3   195  GLY195     -0.1210
    153  CA        60.9810   97.9370   40.9170 C.3   195  GLY195      0.1956
    154  C         62.3640   97.7560   40.3240 C.2   195  GLY195      0.2613
    155  O         63.0220   96.7370   40.5480 O.2   195  GLY195     -0.2717
    156  N         62.8160   98.7500   39.5650 N.am  196  THR196     -0.1938
    157  CA        64.1250   98.6720   38.9290 C.3   196  THR196      0.2028
    158  C         65.3090   98.6830   39.8980 C.2   196  THR196      0.2643
    159  O         66.1640   97.8000   39.8420 O.2   196  THR196     -0.2714
    160  CB        64.3180   99.8150   37.9050 C.3   196  THR196      0.1808
    161  OG1       64.2450  101.0820   38.5730 O.3   196  THR196     -0.2208
    162  CG2       63.2440   99.7500   36.8270 C.3   196  THR196      0.0379
    163  N         65.3600   99.6640   40.7930 N.am  197  SER197     -0.1935
    164  CA        66.4760   99.7570   41.7230 C.3   197  SER197      0.2055
    165  C         66.5110   98.6720   42.8000 C.2   197  SER197      0.2643
    166  O         67.5810   98.3290   43.2960 O.2   197  SER197     -0.2714
    167  CB        66.5010  101.1380   42.3910 C.3   197  SER197      0.2130
    168  OG        65.4480  101.2890   43.3240 O.3   197  SER197     -0.2179
    169  N         65.3570   98.1200   43.1560 N.am  198  GLY198     -0.1954
    170  CA        65.3360   97.1070   44.1930 C.3   198  GLY198      0.1869
    171  C         65.4010   95.6670   43.7230 C.2   198  GLY198      0.2309
    172  O         65.8350   94.7890   44.4780 O.2   198  GLY198     -0.2863
@<TRIPOS>BOND
     1    42    41    2
     2    41    40    1
     3    10     9    2
     4    46    45    1
     5   100    98   ar
     6   100   101   ar
     7    43    40    1
     8    43    44    1
     9    40    39    1
    10    98    96   ar
    11     9     8    1
    12     9    15   am
    13     8    11    1
    14     8     7    1
    15    18    17    2
    16   101    99   ar
    17    17    16    1
    18    11    12    1
    19    34    33    2
    20    45    44    1
    21    15    16    1
    22    16    19    1
    23    14    13    1
    24    96    95    1
    25    96    97   ar
    26    90    89    2
    27    99    97   ar
    28    12    13    1
    29    33    32    1
    30    95    92    1
    31    60    59    2
    32    19    20    1
    33   162   160    1
    34    89    88    1
    35    89    91   am
    36    92    91    1
    37    92    93    1
    38    35    32    1
    39    35    36    1
    40   106   103    1
    41   102    93   am
    42   102   103    1
    43    32    31    1
    44   105   104    2
    45    88    87    1
    46    59    58    1
    47     4     3    2
    48   160   161    1
    49   160   157    1
    50    93    94    2
    51   103   104    1
    52   104   107   am
    53   119   117   am
    54     3     2    1
    55   118   117    2
    56    61    58    1
    57    61    62    1
    58    37    36   ar
    59    36    38   ar
    60    58    57    1
    61   157   156    1
    62   157   158    1
    63   117   116    1
    64    87    82   am
    65    64    63    1
    66     6     5    1
    67    50    49    2
    68    24    23    2
    69   107   108    1
    70    83    82    2
    71   108   109    1
    72    63    62    1
    73   110   109    2
    74   156   154   am
    75    82    81    1
    76   159   158    2
    77     2     5    1
    78     2     1    1
    79    23    22    1
    80   158   163   am
    81   109   111   am
    82    49    48    1
    83   154   155    2
    84   154   153    1
    85   116   115    1
    86    47    48    1
    87   163   164    1
    88   111   112    1
    89   153   152    1
    90    48    51    1
    91    81    84    1
    92    81    80    1
    93   112   115    1
    94   112   113    1
    95    22    21    1
    96    22    25    1
    97    51    52    1
    98    84    85    1
    99    28    30   ar
   100    28    26   ar
   101   164   167    1
   102   164   165    1
   103    52    53   ar
   104    52    54   ar
   105    85    86    1
   106    25    26    1
   107    53    55   ar
   108    54    56   ar
   109    30    29   ar
   110    26    27   ar
   111    80    86    1
   112   167   168    1
   113    55    56   ar
   114   113   114    2
   115   165   169   am
   116   165   166    2
   117    29    27   ar
   118   169   170    1
   119    78    77    1
   120   171   170    1
   121   171   172    2
   122   126   125   ar
   123   127   125   ar
   124   150   148    1
   125    72    71    1
   126    79    77    1
   127   125   124    1
   128    77    74    1
   129    75    76    2
   130    75    74    1
   131    71    70    1
   132   132   133    1
   133   132   130   am
   134   129   128    1
   135   129   130    1
   136   146   147    2
   137   146   145    1
   138   148   149    1
   139   148   145    1
   140    74    73    1
   141   133   136    1
   142   133   134    1
   143   151   149    1
   144   128   122   am
   145   136   137    1
   146   130   131    2
   147   145   144    1
   148   124   121    1
   149    70    69    1
   150   122   123    2
   151   122   121    1
   152   141   140    2
   153   138   134   am
   154   138   139    1
   155   121   120    1
   156   134   135    2
   157    69    66    1
   158   140   139    1
   159   139   142    1
   160   142   143    1
   161    66    67    1
   162    66    65    1
   163    67    68    2
