@<TRIPOS>MOLECULE
tmp/3ctpB00.pdb
 120 114 0 0 0
SMALL
GASTEIGER

@<TRIPOS>ATOM
      1  N         22.5150   35.2130   21.5630 N.3    13  ASN13      -0.1240
      2  CA        21.5110   36.2830   21.8070 C.3    13  ASN13       0.1653
      3  C         21.8630   37.5000   20.9800 C.2    13  ASN13       0.2266
      4  O         22.9520   38.0310   21.1170 O.2    13  ASN13      -0.2867
      5  CB        21.5780   36.5990   23.3060 C.3    13  ASN13       0.1155
      6  CG        20.6300   37.6860   23.7210 C.2    13  ASN13       0.2627
      7  OD1       20.1690   38.5020   22.9020 O.2    13  ASN13      -0.2716
      8  ND2       20.3370   37.7350   25.0370 N.am   13  ASN13      -0.0877
      9  N         21.2900   40.4850   21.1420 N.3    15  PHE15      -0.1227
     10  CA        21.7810   41.6660   21.8420 C.3    15  PHE15       0.1736
     11  C         23.2990   41.6010   22.0200 C.2    15  PHE15       0.2595
     12  O         24.0220   42.5940   21.8100 O.2    15  PHE15      -0.2718
     13  CB        21.1200   41.8240   23.2120 C.3    15  PHE15       0.0547
     14  CG        21.6880   42.9680   24.0110 C.ar   15  PHE15      -0.0202
     15  CD1       21.2700   44.2700   23.7530 C.ar   15  PHE15      -0.0042
     16  CD2       22.6720   42.7420   24.9660 C.ar   15  PHE15      -0.0042
     17  CE1       21.8390   45.3410   24.4650 C.ar   15  PHE15      -0.0003
     18  CE2       23.2200   43.7940   25.6810 C.ar   15  PHE15      -0.0003
     19  CZ        22.8210   45.0870   25.4180 C.ar   15  PHE15      -0.0000
     20  N         23.7890   40.4290   22.4020 N.am   16  PHE16      -0.1976
     21  CA        25.2300   40.3550   22.6450 C.3    16  PHE16       0.1639
     22  C         26.0410   40.3410   21.3480 C.2    16  PHE16       0.2290
     23  O         27.1990   40.8000   21.3520 O.2    16  PHE16      -0.2864
     24  CB        25.5990   39.1580   23.5240 C.3    16  PHE16       0.0560
     25  CG        25.1880   39.3480   24.9430 C.ar   16  PHE16      -0.0200
     26  CD1       25.8130   40.3250   25.7050 C.ar   16  PHE16      -0.0042
     27  CD2       24.1550   38.6090   25.4880 C.ar   16  PHE16      -0.0042
     28  CE1       25.4150   40.5590   27.0330 C.ar   16  PHE16      -0.0003
     29  CE2       23.7490   38.8440   26.8100 C.ar   16  PHE16      -0.0003
     30  CZ        24.3730   39.8260   27.5650 C.ar   16  PHE16      -0.0000
     31  N         28.0300   40.1550   32.5580 N.3    65  ARG65      -0.1245
     32  CA        27.1450   39.2950   33.3280 C.3    65  ARG65       0.1563
     33  C         27.9510   38.2920   34.1680 C.2    65  ARG65       0.2260
     34  O         27.6370   37.0830   34.2720 O.2    65  ARG65      -0.2867
     35  CB        26.1270   38.6290   32.3910 C.3    65  ARG65       0.0307
     36  CG        24.7700   38.3730   33.0230 C.3    65  ARG65       0.0489
     37  CD        23.6770   38.4300   31.9630 C.3    65  ARG65       0.2205
     38  NE        23.7180   37.2520   31.0870 N.pl3  65  ARG65      -0.0865
     39  CZ        22.8960   37.0770   30.0600 C.cat  65  ARG65       0.5346
     40  NH1       22.9760   35.9720   29.3210 N.pl3  65  ARG65       0.1354
     41  NH2       22.0040   38.0220   29.7720 N.pl3  65  ARG65       0.1354
     42  N         26.8830   45.0430   33.5910 N.3    83  GLU83      -0.1245
     43  CA        25.7220   44.5980   34.4060 C.3    83  GLU83       0.1567
     44  C         25.9990   44.0850   35.8040 C.2    83  GLU83       0.2260
     45  O         25.5180   44.6700   36.8030 O.2    83  GLU83      -0.2867
     46  CB        24.8710   43.5580   33.6630 C.3    83  GLU83       0.0388
     47  CG        24.1090   44.2260   32.5300 C.3    83  GLU83       0.1160
     48  CD        23.1220   43.3200   31.8200 C.2    83  GLU83       0.3649
     49  OE1       23.1130   42.0880   32.0690 O.co2  83  GLU83      -0.2457
     50  OE2       22.3440   43.8840   31.0150 O.co2  83  GLU83      -0.2457
     51  N         21.1980   37.1850   37.1150 N.3   125  PHE125     -0.1241
     52  CA        21.4050   38.3710   36.2600 C.3   125  PHE125      0.1605
     53  C         20.9240   39.5930   37.0180 C.2   125  PHE125      0.2264
     54  O         19.7200   39.7960   37.1360 O.2   125  PHE125     -0.2867
     55  CB        20.5820   38.2890   34.9600 C.3   125  PHE125      0.0534
     56  CG        20.8790   37.0900   34.0900 C.ar  125  PHE125     -0.0203
     57  CD1       22.0190   36.3290   34.2660 C.ar  125  PHE125     -0.0042
     58  CD2       20.0090   36.7770   33.0410 C.ar  125  PHE125     -0.0042
     59  CE1       22.2820   35.2030   33.4080 C.ar  125  PHE125     -0.0003
     60  CE2       20.2740   35.7100   32.1970 C.ar  125  PHE125     -0.0003
     61  CZ        21.4120   34.9320   32.3940 C.ar  125  PHE125     -0.0000
     62  N         20.6860   42.5250   36.0950 N.3   127  ALA127     -0.1231
     63  CA        19.8580   43.3770   35.2470 C.3   127  ALA127      0.1694
     64  C         18.4110   42.9380   35.2130 C.2   127  ALA127      0.2592
     65  O         17.4950   43.7600   35.2420 O.2   127  ALA127     -0.2718
     66  CB        20.4180   43.3840   33.8150 C.3   127  ALA127      0.0304
     67  N         18.1850   41.6330   35.0970 N.am  128  THR128     -0.1953
     68  CA        16.8010   41.1760   35.0170 C.3   128  THR128      0.1897
     69  C         16.1310   41.2450   36.3880 C.2   128  THR128      0.2313
     70  O         14.9000   41.4420   36.4640 O.2   128  THR128     -0.2863
     71  CB        16.6430   39.7630   34.3700 C.3   128  THR128      0.1794
     72  OG1       17.3770   38.7940   35.1110 O.3   128  THR128     -0.2208
     73  CG2       17.1970   39.7880   32.9550 C.3   128  THR128      0.0378
     74  N         14.8540   44.6960   36.4630 N.3   131  ARG131     -0.1245
     75  CA        13.6580   44.8700   35.6160 C.3   131  ARG131      0.1563
     76  C         12.4140   44.3570   36.3510 C.2   131  ARG131      0.2260
     77  O         11.3350   44.9600   36.2950 O.2   131  ARG131     -0.2867
     78  CB        13.8020   44.1160   34.2670 C.3   131  ARG131      0.0307
     79  CG        14.8670   44.7510   33.3780 C.3   131  ARG131      0.0489
     80  CD        15.2510   43.8660   32.1830 C.3   131  ARG131      0.2205
     81  NE        16.5050   44.3680   31.6290 N.pl3 131  ARG131     -0.0865
     82  CZ        17.2410   43.7380   30.7270 C.cat 131  ARG131      0.5346
     83  NH1       16.8360   42.5610   30.2330 N.pl3 131  ARG131      0.1354
     84  NH2       18.3950   44.2760   30.3480 N.pl3 131  ARG131      0.1354
     85  N         11.5990   39.2080   29.8180 N.3   179  PHE179     -0.1227
     86  CA        12.8230   39.8820   30.2770 C.3   179  PHE179      0.1736
     87  C         13.7830   40.3190   29.1800 C.2   179  PHE179      0.2595
     88  O         14.6340   41.1940   29.4120 O.2   179  PHE179     -0.2718
     89  CB        13.5680   39.0140   31.2960 C.3   179  PHE179      0.0547
     90  CG        14.1120   37.7050   30.7290 C.ar  179  PHE179     -0.0202
     91  CD1       15.4250   37.6140   30.2730 C.ar  179  PHE179     -0.0042
     92  CD2       13.3290   36.5530   30.7360 C.ar  179  PHE179     -0.0042
     93  CE1       15.9000   36.4140   29.7990 C.ar  179  PHE179     -0.0003
     94  CE2       13.8110   35.3420   30.2620 C.ar  179  PHE179     -0.0003
     95  CZ        15.0940   35.2780   29.8010 C.ar  179  PHE179     -0.0000
     96  N         13.7130   39.6980   28.0050 N.am  180  ASN180     -0.1974
     97  CA        14.4650   40.2660   26.8690 C.3   180  ASN180      0.1688
     98  C         13.8490   39.8990   25.5480 C.2   180  ASN180      0.2292
     99  O         12.8860   39.1340   25.5210 O.2   180  ASN180     -0.2864
    100  CB        15.9620   39.9220   26.9160 C.3   180  ASN180      0.1181
    101  CG        16.2610   38.4550   26.6690 C.2   180  ASN180      0.2629
    102  OD1       15.4570   37.7380   26.1020 O.2   180  ASN180     -0.2716
    103  ND2       17.4750   38.0020   27.0870 N.am  180  ASN180     -0.0877
    104  N         15.4810   45.2880   25.2490 N.3   208  ASP208     -0.1239
    105  CA        16.8160   45.3610   24.6010 C.3   208  ASP208      0.1674
    106  C         16.7920   46.2820   23.3570 C.2   208  ASP208      0.2266
    107  O         17.7340   47.0140   23.0780 O.2   208  ASP208     -0.2867
    108  CB        17.3250   44.0340   24.0440 C.3   208  ASP208      0.1410
    109  CG        17.8000   43.0550   25.0980 C.2   208  ASP208      0.3668
    110  OD1       18.1020   43.4490   26.2490 O.co2 208  ASP208     -0.2456
    111  OD2       17.9150   41.8420   24.7410 O.co2 208  ASP208     -0.2456
    112  N         17.9490   49.3580   24.9660 N.3   225  GLN225     -0.1245
    113  CA        19.2760   49.5610   25.5800 C.3   225  GLN225      0.1566
    114  C         20.1520   50.2870   24.5800 C.2   225  GLN225      0.2260
    115  O         20.2330   49.8650   23.4080 O.2   225  GLN225     -0.2867
    116  CB        19.9440   48.2250   25.9230 C.3   225  GLN225      0.0367
    117  CG        19.2410   47.4330   27.0120 C.3   225  GLN225      0.0905
    118  CD        20.1870   46.4520   27.6610 C.2   225  GLN225      0.2608
    119  OE1       21.1360   46.8610   28.3190 O.2   225  GLN225     -0.2717
    120  NE2       19.9300   45.1390   27.5000 N.am  225  GLN225     -0.0878
@<TRIPOS>BOND
     1     3     4    2
     2     3     2    1
     3     9    10    1
     4    22    23    2
     5    22    21    1
     6     1     2    1
     7     2     5    1
     8    12    11    2
     9    10    11    1
    10    10    13    1
    11    11    20   am
    12    20    21    1
    13    21    24    1
    14     7     6    2
    15   107   106    2
    16    13    14    1
    17     5     6    1
    18   106   105    1
    19   115   114    2
    20    24    25    1
    21     6     8   am
    22    15    14   ar
    23    15    17   ar
    24    14    16   ar
    25   108   105    1
    26   108   109    1
    27    17    19   ar
    28   114   113    1
    29   105   104    1
    30   111   109   ar
    31    25    27   ar
    32    25    26   ar
    33    16    18   ar
    34   112   113    1
    35   109   110   ar
    36    19    18   ar
    37    27    29   ar
    38    99    98    2
    39    98    97    1
    40   113   116    1
    41    26    28   ar
    42   116   117    1
    43   102   101    2
    44   101   100    1
    45   101   103   am
    46    29    30   ar
    47    97   100    1
    48    97    96    1
    49   117   118    1
    50    28    30   ar
    51   120   118   am
    52   118   119    2
    53    96    87   am
    54    87    88    2
    55    87    86    1
    56    40    39    1
    57    41    39    1
    58    93    95   ar
    59    93    91   ar
    60    95    94   ar
    61    85    86    1
    62    39    38    2
    63    83    82    1
    64    94    92   ar
    65    91    90   ar
    66    86    89    1
    67    84    82    1
    68    82    81    2
    69    90    92   ar
    70    90    89    1
    71    50    48   ar
    72    38    37    1
    73    81    80    1
    74    48    49   ar
    75    48    47    1
    76    37    36    1
    77    80    79    1
    78    60    61   ar
    79    60    58   ar
    80    35    36    1
    81    35    32    1
    82    61    59   ar
    83    47    46    1
    84    31    32    1
    85    73    71    1
    86    58    56   ar
    87    32    33    1
    88    79    78    1
    89    59    57   ar
    90    42    43    1
    91    46    43    1
    92    66    63    1
    93    56    57   ar
    94    56    55    1
    95    33    34    2
    96    78    75    1
    97    71    68    1
    98    71    72    1
    99    43    44    1
   100    55    52    1
   101    68    67    1
   102    68    69    1
   103    67    64   am
   104    64    65    2
   105    64    63    1
   106    63    62    1
   107    75    76    1
   108    75    74    1
   109    44    45    2
   110    52    53    1
   111    52    51    1
   112    77    76    2
   113    69    70    2
   114    53    54    2
