@<TRIPOS>MOLECULE
tmp/3ctrA00.pdb
 96 96 0 0 0
SMALL
GASTEIGER

@<TRIPOS>ATOM
      1  N         37.8670   10.8560   -2.8210 N.3    13  PHE13      -0.1241
      2  CA        36.9880    9.7260   -3.0700 C.3    13  PHE13       0.1605
      3  C         36.2290    9.9120   -4.3780 C.2    13  PHE13       0.2264
      4  O         36.2550   10.9970   -4.9360 O.2    13  PHE13      -0.2867
      5  CB        35.9910    9.5910   -1.9250 C.3    13  PHE13       0.0534
      6  CG        35.4570   10.9070   -1.4240 C.ar   13  PHE13      -0.0203
      7  CD1       36.0190   11.5140   -0.3060 C.ar   13  PHE13      -0.0042
      8  CD2       34.3840   11.5330   -2.0590 C.ar   13  PHE13      -0.0042
      9  CE1       35.5340   12.7160    0.1630 C.ar   13  PHE13      -0.0003
     10  CE2       33.8900   12.7400   -1.5950 C.ar   13  PHE13      -0.0003
     11  CZ        34.4660   13.3350   -0.4820 C.ar   13  PHE13      -0.0000
     12  N         33.0780   10.6520   -6.9240 N.3    15  LYS15      -0.1245
     13  CA        31.9490   11.5830   -6.8450 C.3    15  LYS15       0.1561
     14  C         30.6490   10.9310   -6.3550 C.2    15  LYS15       0.2260
     15  O         29.7790   11.6120   -5.8120 O.2    15  LYS15      -0.2867
     16  CB        31.7370   12.3000   -8.1910 C.3    15  LYS15       0.0271
     17  CG        31.4750   11.3820   -9.3770 C.3    15  LYS15       0.0035
     18  CD        31.1470   12.1820  -10.6420 C.3    15  LYS15       0.0206
     19  CE        30.7280   11.2450  -11.7750 C.3    15  LYS15       0.1093
     20  NZ        31.0460   11.8350  -13.1090 N.3    15  LYS15      -0.1314
     21  N         30.2340    8.8680   -3.8940 N.3    17  TRP17      -0.1227
     22  CA        30.1740    8.7300   -2.4330 C.3    17  TRP17       0.1737
     23  C         29.2410    9.7450   -1.7910 C.2    17  TRP17       0.2595
     24  O         29.1290   10.8840   -2.2680 O.2    17  TRP17      -0.2718
     25  CB        31.5750    8.8800   -1.8370 C.3    17  TRP17       0.0564
     26  CG        32.4170    7.6270   -1.8770 C.ar   17  TRP17       0.0003
     27  CD1       32.3510    6.6090   -2.7910 C.ar   17  TRP17       0.0946
     28  CD2       33.4650    7.2700   -0.9580 C.ar   17  TRP17       0.0152
     29  NE1       33.2850    5.6400   -2.4910 N.ar   17  TRP17      -0.2442
     30  CE2       33.9900    6.0270   -1.3820 C.ar   17  TRP17       0.0810
     31  CE3       34.0110    7.8840    0.1800 C.ar   17  TRP17       0.0012
     32  CZ2       35.0330    5.3840   -0.7040 C.ar   17  TRP17       0.0191
     33  CZ3       35.0560    7.2440    0.8530 C.ar   17  TRP17       0.0001
     34  CH2       35.5500    6.0100    0.4120 C.ar   17  TRP17       0.0015
     35  N         28.5800    9.3170   -0.7160 N.am   18  LYS18      -0.1966
     36  CA        27.7210   10.1670    0.1020 C.3    18  LYS18       0.1728
     37  C         28.2640   10.2560    1.5310 C.2    18  LYS18       0.2616
     38  O         29.2920    9.6570    1.8610 O.2    18  LYS18      -0.2715
     39  CB        26.2920    9.6070    0.1560 C.3    18  LYS18       0.0311
     40  CG        25.5850    9.3820   -1.2030 C.3    18  LYS18       0.0038
     41  CD        25.2830   10.7040   -1.9250 C.3    18  LYS18       0.0206
     42  CE        24.4070   10.4940   -3.1670 C.3    18  LYS18       0.1093
     43  NZ        25.1290    9.7330   -4.2390 N.3    18  LYS18      -0.1314
     44  N         27.5630   11.0160    2.3680 N.am   19  THR19      -0.1951
     45  CA        27.8790   11.1470    3.7900 C.3    19  THR19       0.1897
     46  C         28.0890    9.7760    4.4480 C.2    19  THR19       0.2313
     47  O         29.0510    9.5790    5.1850 O.2    19  THR19      -0.2863
     48  CB        26.7520   11.8950    4.5410 C.3    19  THR19       0.1794
     49  OG1       26.4300   13.0960    3.8310 O.3    19  THR19      -0.2208
     50  CG2       27.1860   12.2680    5.9470 C.3    19  THR19       0.0378
     51  N         32.2090   15.8850    8.8060 N.3    34  ILE34      -0.1245
     52  CA        32.6660   16.0430    7.4270 C.3    34  ILE34       0.1561
     53  C         32.6090   17.5230    7.0210 C.2    34  ILE34       0.2260
     54  O         31.5790   18.1640    7.1850 O.2    34  ILE34      -0.2867
     55  CB        31.8180   15.1930    6.4710 C.3    34  ILE34       0.0252
     56  CG1       31.9480   13.7000    6.8370 C.3    34  ILE34       0.0019
     57  CG2       32.2080   15.4470    4.9960 C.3    34  ILE34       0.0019
     58  CD1       30.7450   12.8940    6.4620 C.3    34  ILE34       0.0001
     59  N         32.9070   19.2540    3.6410 N.3    36  TRP36      -0.1227
     60  CA        33.0560   19.0350    2.1890 C.3    36  TRP36       0.1737
     61  C         33.8550   20.1440    1.5380 C.2    36  TRP36       0.2595
     62  O         33.6640   21.3140    1.8720 O.2    36  TRP36      -0.2718
     63  CB        31.7040   18.9370    1.5190 C.3    36  TRP36       0.0564
     64  CG        30.8460   17.8520    2.0660 C.ar   36  TRP36       0.0003
     65  CD1       29.9170   17.9630    3.0550 C.ar   36  TRP36       0.0946
     66  CD2       30.8200   16.4860    1.6400 C.ar   36  TRP36       0.0152
     67  NE1       29.3060   16.7600    3.2680 N.ar   36  TRP36      -0.2442
     68  CE2       29.8430   15.8300    2.4190 C.ar   36  TRP36       0.0810
     69  CE3       31.5330   15.7510    0.6810 C.ar   36  TRP36       0.0012
     70  CZ2       29.5630   14.4630    2.2840 C.ar   36  TRP36       0.0191
     71  CZ3       31.2430   14.3960    0.5340 C.ar   36  TRP36       0.0001
     72  CH2       30.2690   13.7690    1.3370 C.ar   36  TRP36       0.0015
     73  N         34.7800   19.7550    0.6590 N.am   37  ILE37      -0.1966
     74  CA        35.5890   20.6670   -0.1340 C.3    37  ILE37       0.1727
     75  C         34.9850   20.7960   -1.5480 C.2    37  ILE37       0.2616
     76  O         34.6910   21.9060   -2.0140 O.2    37  ILE37      -0.2715
     77  CB        37.0720   20.2050   -0.2040 C.3    37  ILE37       0.0290
     78  CG1       37.7490   20.3540    1.1690 C.3    37  ILE37       0.0022
     79  CG2       37.8350   20.9600   -1.2960 C.3    37  ILE37       0.0023
     80  CD1       39.0220   19.5670    1.3250 C.3    37  ILE37       0.0001
     81  N         34.7840   19.6640   -2.2130 N.am   38  ASP38      -0.1957
     82  CA        34.1510   19.6270   -3.5310 C.3    38  ASP38       0.1840
     83  C         33.5570   18.2400   -3.7600 C.2    38  ASP38       0.2622
     84  O         33.2850   17.5200   -2.7890 O.2    38  ASP38      -0.2715
     85  CB        35.1340   20.0390   -4.6440 C.3    38  ASP38       0.1450
     86  CG        36.3860   19.1720   -4.6840 C.2    38  ASP38       0.3671
     87  OD1       36.3080   17.9770   -4.3440 O.co2  38  ASP38      -0.2456
     88  OD2       37.4610   19.6820   -5.0490 O.co2  38  ASP38      -0.2456
     89  N         33.3540   17.8640   -5.0240 N.am   39  ASP39      -0.1971
     90  CA        32.6280   16.6290   -5.3490 C.3    39  ASP39       0.1709
     91  C         33.3800   15.3790   -4.9080 C.2    39  ASP39       0.2293
     92  O         32.7770   14.3490   -4.6070 O.2    39  ASP39      -0.2864
     93  CB        32.3460   16.5300   -6.8650 C.3    39  ASP39       0.1436
     94  CG        31.0330   17.1940   -7.2690 C.2    39  ASP39       0.3671
     95  OD1       30.4030   17.8680   -6.4110 O.co2  39  ASP39      -0.2456
     96  OD2       30.6270   17.0290   -8.4590 O.co2  39  ASP39      -0.2456
@<TRIPOS>BOND
     1    20    19    1
     2    19    18    1
     3    18    17    1
     4    17    16    1
     5    96    94   ar
     6    16    13    1
     7    94    93    1
     8    94    95   ar
     9    12    13    1
    10    93    90    1
    11    13    14    1
    12    14    15    2
    13    90    89    1
    14    90    91    1
    15    88    86   ar
    16    89    83   am
    17     4     3    2
    18    91    92    2
    19    86    85    1
    20    86    87   ar
    21    85    82    1
    22     3     2    1
    23    43    42    1
    24    21    22    1
    25    83    82    1
    26    83    84    2
    27    82    81    1
    28    42    41    1
    29     2     1    1
    30     2     5    1
    31    27    29   ar
    32    27    26   ar
    33    29    30   ar
    34    22    25    1
    35    22    23    1
    36    24    23    2
    37    81    75   am
    38     8    10   ar
    39     8     6   ar
    40    76    75    2
    41     5     6    1
    42    41    40    1
    43    26    25    1
    44    26    28   ar
    45    23    35   am
    46    10    11   ar
    47    75    74    1
    48     6     7   ar
    49    30    28   ar
    50    30    32   ar
    51    79    77    1
    52    40    39    1
    53    28    31   ar
    54    35    36    1
    55    32    34   ar
    56    11     9   ar
    57     7     9   ar
    58    77    74    1
    59    77    78    1
    60    74    73    1
    61    36    39    1
    62    36    37    1
    63    31    33   ar
    64    34    33   ar
    65    71    69   ar
    66    71    72   ar
    67    73    61   am
    68    69    66   ar
    69    78    80    1
    70    72    70   ar
    71    63    64    1
    72    63    60    1
    73    37    38    2
    74    37    44   am
    75    61    62    2
    76    61    60    1
    77    66    64   ar
    78    66    68   ar
    79    64    65   ar
    80    60    59    1
    81    70    68   ar
    82    44    45    1
    83    68    67   ar
    84    65    67   ar
    85    45    46    1
    86    45    48    1
    87    49    48    1
    88    46    47    2
    89    48    50    1
    90    57    55    1
    91    58    56    1
    92    55    56    1
    93    55    52    1
    94    53    54    2
    95    53    52    1
    96    52    51    1
