@<TRIPOS>MOLECULE
tmp/3cttA02.pdb
 142 139 0 0 0
SMALL
GASTEIGER

@<TRIPOS>ATOM
      1  N          4.0180  -21.0010   30.0570 N.3   197  ASP197     -0.1239
      2  CA         3.5490  -21.0770   28.6850 C.3   197  ASP197      0.1674
      3  C          2.8680  -22.4150   28.4550 C.2   197  ASP197      0.2266
      4  O          3.5340  -23.4530   28.3130 O.2   197  ASP197     -0.2867
      5  CB         4.7330  -20.8840   27.7320 C.3   197  ASP197      0.1410
      6  CG         4.3160  -20.7410   26.2830 C.2   197  ASP197      0.3668
      7  OD1        3.2000  -21.1860   25.9150 O.co2 197  ASP197     -0.2456
      8  OD2        5.1230  -20.1890   25.4990 O.co2 197  ASP197     -0.2456
      9  N         -1.7790  -13.9480   13.6920 N.3   293  TYR293     -0.1241
     10  CA        -0.4280  -14.4550   13.6190 C.3   293  TYR293      0.1605
     11  C         -0.1660  -14.7670   12.1390 C.2   293  TYR293      0.2264
     12  O         -0.8810  -15.5400   11.5230 O.2   293  TYR293     -0.2867
     13  CB        -0.3390  -15.6810   14.5450 C.3   293  TYR293      0.0534
     14  CG         1.0310  -16.3030   14.7390 C.ar  293  TYR293     -0.0201
     15  CD1        1.1580  -17.5240   15.3950 C.ar  293  TYR293     -0.0009
     16  CD2        2.1860  -15.6980   14.2460 C.ar  293  TYR293     -0.0009
     17  CE1        2.4210  -18.1340   15.5750 C.ar  293  TYR293      0.0417
     18  CE2        3.4360  -16.2940   14.4160 C.ar  293  TYR293      0.0417
     19  CZ         3.5440  -17.5070   15.0690 C.ar  293  TYR293      0.1957
     20  OH         4.7910  -18.0690   15.2280 O.3   293  TYR293     -0.2866
     21  N          1.6640   -8.8300   14.6480 N.3   321  ASP321     -0.1225
     22  CA         2.2770   -9.9590   15.3340 C.3   321  ASP321      0.1805
     23  C          3.7610  -10.1180   14.8880 C.2   321  ASP321      0.2597
     24  O          4.2800   -9.2640   14.1860 O.2   321  ASP321     -0.2718
     25  CB         1.4550  -11.2220   15.0700 C.3   321  ASP321      0.1424
     26  CG         1.5840  -12.2560   16.1650 C.2   321  ASP321      0.3668
     27  OD1        2.6680  -12.4010   16.7710 O.co2 321  ASP321     -0.2456
     28  OD2        0.6140  -12.9910   16.3790 O.co2 321  ASP321     -0.2456
     29  N          4.4310  -11.1990   15.2670 N.am  322  ILE322     -0.1980
     30  CA         5.8850  -11.3180   14.9700 C.3   322  ILE322      0.1595
     31  C          6.2600  -11.3520   13.4740 C.2   322  ILE322      0.2287
     32  O          7.4280  -11.1420   13.1520 O.2   322  ILE322     -0.2864
     33  CB         6.5950  -12.4960   15.7270 C.3   322  ILE322      0.0276
     34  CG1        5.8850  -13.8300   15.4580 C.3   322  ILE322      0.0022
     35  CG2        6.7000  -12.1890   17.1980 C.3   322  ILE322      0.0022
     36  CD1        6.5120  -15.0490   16.1620 C.3   322  ILE322      0.0001
     37  N          3.5410   -6.2660   18.7380 N.3   358  ILE358     -0.1245
     38  CA         3.9980   -7.2650   19.6740 C.3   358  ILE358      0.1561
     39  C          5.5110   -7.0220   19.8660 C.2   358  ILE358      0.2260
     40  O          6.2090   -6.6210   18.9260 O.2   358  ILE358     -0.2867
     41  CB         3.6920   -8.7120   19.1660 C.3   358  ILE358      0.0252
     42  CG1        3.6230   -9.7040   20.3240 C.3   358  ILE358      0.0019
     43  CG2        4.7050   -9.1860   18.1150 C.3   358  ILE358      0.0019
     44  CD1        2.8840  -11.0320   19.9920 C.3   358  ILE358      0.0001
     45  N         11.9190  -17.2120   19.4950 N.3   400  TRP400     -0.1241
     46  CA        11.6310  -17.0340   18.0710 C.3   400  TRP400      0.1605
     47  C         12.8710  -16.8550   17.1540 C.2   400  TRP400      0.2264
     48  O         12.9490  -17.4680   16.0960 O.2   400  TRP400     -0.2867
     49  CB        10.6650  -15.8550   17.8800 C.3   400  TRP400      0.0550
     50  CG         9.3410  -16.0130   18.5810 C.ar  400  TRP400      0.0003
     51  CD1        8.8040  -15.1930   19.5330 C.ar  400  TRP400      0.0946
     52  CD2        8.3930  -17.0650   18.3740 C.ar  400  TRP400      0.0152
     53  NE1        7.5670  -15.6780   19.9350 N.ar  400  TRP400     -0.2442
     54  CE2        7.2880  -16.8150   19.2260 C.ar  400  TRP400      0.0810
     55  CE3        8.3540  -18.1850   17.5280 C.ar  400  TRP400      0.0012
     56  CZ2        6.1740  -17.6520   19.2700 C.ar  400  TRP400      0.0191
     57  CZ3        7.2370  -19.0240   17.5790 C.ar  400  TRP400      0.0001
     58  CH2        6.1700  -18.7510   18.4540 C.ar  400  TRP400      0.0015
     59  N          2.1780   -4.8490   22.8200 N.3   435  TRP435     -0.1241
     60  CA         1.6770   -6.1390   23.2320 C.3   435  TRP435      0.1605
     61  C          2.9190   -6.9620   23.6530 C.2   435  TRP435      0.2264
     62  O          3.7390   -7.3420   22.8250 O.2   435  TRP435     -0.2867
     63  CB         0.8100   -6.7120   22.0840 C.3   435  TRP435      0.0550
     64  CG         0.4920   -8.1680   22.0860 C.ar  435  TRP435      0.0003
     65  CD1        0.4620   -8.9970   23.1480 C.ar  435  TRP435      0.0946
     66  CD2        0.1010   -8.9510   20.9520 C.ar  435  TRP435      0.0152
     67  NE1        0.1270  -10.2600   22.7490 N.ar  435  TRP435     -0.2442
     68  CE2       -0.1150  -10.2520   21.4020 C.ar  435  TRP435      0.0810
     69  CE3       -0.0820   -8.6660   19.5900 C.ar  435  TRP435      0.0012
     70  CZ2       -0.4890  -11.2870   20.5470 C.ar  435  TRP435      0.0191
     71  CZ3       -0.4370   -9.6680   18.7470 C.ar  435  TRP435      0.0001
     72  CH2       -0.6470  -10.9740   19.2190 C.ar  435  TRP435      0.0015
     73  N          4.5350  -10.2450   25.0870 N.3   437  ASP437     -0.1225
     74  CA         4.2030  -11.6420   24.9440 C.3   437  ASP437      0.1805
     75  C          5.3250  -12.5190   25.5080 C.2   437  ASP437      0.2597
     76  O          6.4580  -12.0540   25.6940 O.2   437  ASP437     -0.2718
     77  CB         3.9860  -11.9530   23.4590 C.3   437  ASP437      0.1424
     78  CG         3.3490  -13.3270   23.2080 C.2   437  ASP437      0.3668
     79  OD1        2.6700  -13.8480   24.1120 O.co2 437  ASP437     -0.2456
     80  OD2        3.5540  -13.8960   22.1050 O.co2 437  ASP437     -0.2456
     81  N          4.9920  -13.7840   25.7750 N.am  438  MET438     -0.1979
     82  CA         5.9850  -14.8100   26.0870 C.3   438  MET438      0.1605
     83  C          6.7940  -14.4450   27.3060 C.2   438  MET438      0.2287
     84  O          7.9520  -14.8410   27.4170 O.2   438  MET438     -0.2864
     85  CB         6.9390  -14.9830   24.8900 C.3   438  MET438      0.0413
     86  CG         6.2350  -15.3050   23.5840 C.3   438  MET438      0.0598
     87  SD         5.8400  -17.0140   23.5390 S.3   438  MET438     -0.1393
     88  CE         7.4950  -17.7660   23.3530 C.3   438  MET438      0.0692
     89  N          0.7750  -11.0150   28.5310 N.3   520  ARG520     -0.1245
     90  CA         0.3610  -12.4050   28.6950 C.3   520  ARG520      0.1563
     91  C          0.4730  -12.8000   30.1620 C.2   520  ARG520      0.2260
     92  O         -0.5280  -13.1810   30.8010 O.2   520  ARG520     -0.2867
     93  CB         1.1810  -13.3730   27.8130 C.3   520  ARG520      0.0307
     94  CG         0.4870  -14.7090   27.7350 C.3   520  ARG520      0.0489
     95  CD         0.9740  -15.5650   26.6630 C.3   520  ARG520      0.2205
     96  NE         2.2260  -16.1870   27.0550 N.pl3 520  ARG520     -0.0865
     97  CZ         2.8520  -17.1000   26.3320 C.cat 520  ARG520      0.5346
     98  NH1        2.3440  -17.4860   25.1660 N.pl3 520  ARG520      0.1354
     99  NH2        3.9780  -17.6060   26.7700 N.pl3 520  ARG520      0.1354
    100  N         -4.8490  -10.7100   27.7840 N.3   533  TRP533     -0.1241
    101  CA        -5.7310  -11.5950   27.0250 C.3   533  TRP533      0.1605
    102  C         -5.5040  -13.0410   27.4760 C.2   533  TRP533      0.2264
    103  O         -4.4080  -13.3770   27.9500 O.2   533  TRP533     -0.2867
    104  CB        -5.5820  -11.4040   25.5070 C.3   533  TRP533      0.0550
    105  CG        -4.5630  -12.3060   24.8530 C.ar  533  TRP533      0.0003
    106  CD1       -4.8210  -13.3550   24.0270 C.ar  533  TRP533      0.0946
    107  CD2       -3.1280  -12.2240   24.9710 C.ar  533  TRP533      0.0152
    108  NE1       -3.6250  -13.9350   23.6120 N.ar  533  TRP533     -0.2442
    109  CE2       -2.5800  -13.2550   24.1780 C.ar  533  TRP533      0.0810
    110  CE3       -2.2610  -11.3820   25.6670 C.ar  533  TRP533      0.0012
    111  CZ2       -1.2020  -13.4750   24.0740 C.ar  533  TRP533      0.0191
    112  CZ3       -0.8880  -11.5830   25.5440 C.ar  533  TRP533      0.0001
    113  CH2       -0.3730  -12.6340   24.7730 C.ar  533  TRP533      0.0015
    114  N         -3.7900  -18.6510   24.1970 N.3   536  ASP536     -0.1239
    115  CA        -3.9880  -19.4540   22.9940 C.3   536  ASP536      0.1674
    116  C         -5.1290  -20.4160   23.1330 C.2   536  ASP536      0.2266
    117  O         -4.9180  -21.6240   23.3240 O.2   536  ASP536     -0.2867
    118  CB        -2.7020  -20.2130   22.6530 C.3   536  ASP536      0.1410
    119  CG        -1.6410  -19.3100   22.1080 C.2   536  ASP536      0.3668
    120  OD1       -1.9790  -18.1330   21.8700 O.co2 536  ASP536     -0.2456
    121  OD2       -0.4720  -19.7500   21.9400 O.co2 536  ASP536     -0.2456
    122  N         -8.1430  -18.7180   18.6740 N.3   569  PHE569     -0.1241
    123  CA        -6.8140  -18.6810   18.0940 C.3   569  PHE569      0.1605
    124  C         -6.5110  -19.9030   17.2090 C.2   569  PHE569      0.2264
    125  O         -6.3750  -19.7670   16.0080 O.2   569  PHE569     -0.2867
    126  CB        -5.8270  -18.5730   19.2340 C.3   569  PHE569      0.0534
    127  CG        -4.3900  -18.5020   18.8140 C.ar  569  PHE569     -0.0203
    128  CD1       -3.8710  -17.3510   18.2340 C.ar  569  PHE569     -0.0042
    129  CD2       -3.5460  -19.5690   19.0670 C.ar  569  PHE569     -0.0042
    130  CE1       -2.5320  -17.2710   17.9000 C.ar  569  PHE569     -0.0003
    131  CE2       -2.2030  -19.5110   18.7100 C.ar  569  PHE569     -0.0003
    132  CZ        -1.6890  -18.3620   18.1400 C.ar  569  PHE569     -0.0000
    133  N         -8.4260  -12.3850   17.1710 N.3   594  HIS594     -0.1241
    134  CA        -7.0550  -12.7980   16.8370 C.3   594  HIS594      0.1621
    135  C         -7.0420  -14.2730   16.3780 C.2   594  HIS594      0.2264
    136  O         -7.8990  -15.0480   16.7650 O.2   594  HIS594     -0.2867
    137  CB        -6.1180  -12.5130   18.0150 C.3   594  HIS594      0.0745
    138  CG        -4.6840  -12.9110   17.7950 C.ar  594  HIS594      0.0817
    139  ND1       -3.9190  -12.4180   16.7680 N.ar  594  HIS594     -0.2268
    140  CD2       -3.8630  -13.7090   18.5130 C.ar  594  HIS594      0.1154
    141  CE1       -2.6950  -12.9200   16.8360 C.ar  594  HIS594      0.1986
    142  NE2       -2.6360  -13.7150   17.8840 N.ar  594  HIS594     -0.2212
@<TRIPOS>BOND
     1    12    11    2
     2    11    10    1
     3    32    31    2
     4    31    30    1
     5    10     9    1
     6    10    13    1
     7    24    23    2
     8    16    18   ar
     9    16    14   ar
    10    18    19   ar
    11    13    14    1
    12    21    22    1
    13    14    15   ar
    14    23    29   am
    15    23    22    1
    16    30    29    1
    17    30    33    1
    18    19    20    1
    19    19    17   ar
    20    25    22    1
    21    25    26    1
    22    15    17   ar
    23    34    33    1
    24    34    36    1
    25    33    35    1
    26   125   124    2
    27    48    47    2
    28    26    28   ar
    29    26    27   ar
    30   135   136    2
    31   135   134    1
    32   139   141   ar
    33   139   138   ar
    34   141   142   ar
    35   134   133    1
    36   134   137    1
    37    47    46    1
    38   124   123    1
    39    55    57   ar
    40    55    52   ar
    41    57    58   ar
    42   138   137    1
    43   138   140   ar
    44    49    46    1
    45    49    50    1
    46   142   140   ar
    47   130   132   ar
    48   130   128   ar
    49    46    45    1
    50   123   122    1
    51   123   126    1
    52    43    41    1
    53   132   131   ar
    54   128   127   ar
    55    52    50   ar
    56    52    54   ar
    57    58    56   ar
    58    50    51   ar
    59   131   129   ar
    60    37    38    1
    61    71    72   ar
    62    71    69   ar
    63   127   129   ar
    64   127   126    1
    65    40    39    2
    66    41    38    1
    67    41    42    1
    68    72    70   ar
    69    54    56   ar
    70    54    53   ar
    71    51    53   ar
    72    69    66   ar
    73    38    39    1
    74    44    42    1
    75    70    68   ar
    76    66    68   ar
    77    66    64   ar
    78    68    67   ar
    79   120   119   ar
    80   121   119   ar
    81    63    64    1
    82    63    60    1
    83    64    65   ar
    84    80    78   ar
    85   119   118    1
    86   118   115    1
    87    67    65   ar
    88    59    60    1
    89    62    61    2
    90   115   116    1
    91   115   114    1
    92   116   117    2
    93    78    77    1
    94    78    79   ar
    95    60    61    1
    96    88    87    1
    97    77    74    1
    98    87    86    1
    99    86    85    1
   100   108   106   ar
   101   108   109   ar
   102   106   105   ar
   103   111   109   ar
   104   111   113   ar
   105   109   107   ar
   106   113   112   ar
   107   105   107   ar
   108   105   104    1
   109    85    82    1
   110    74    73    1
   111    74    75    1
   112   107   110   ar
   113    98    97    1
   114     8     6   ar
   115   104   101    1
   116    75    76    2
   117    75    81   am
   118   112   110   ar
   119    81    82    1
   120     7     6   ar
   121    82    83    1
   122     6     5    1
   123    97    99    1
   124    97    96    2
   125    95    96    1
   126    95    94    1
   127   101   102    1
   128   101   100    1
   129    83    84    2
   130   102   103    2
   131     5     2    1
   132    94    93    1
   133    93    90    1
   134     4     3    2
   135     3     2    1
   136    89    90    1
   137     2     1    1
   138    90    91    1
   139    91    92    2
