@<TRIPOS>MOLECULE
tmp/3ctzA00.pdb
 131 128 0 0 0
SMALL
GASTEIGER

@<TRIPOS>ATOM
      1  N          3.9600   51.1200   65.4080 N.3    39  GLU39      -0.1231
      2  CA         4.8600   52.2250   65.1240 C.3    39  GLU39       0.1699
      3  C          5.9450   52.3530   66.1880 C.2    39  GLU39       0.2592
      4  O          7.0750   52.7550   65.8770 O.2    39  GLU39      -0.2718
      5  CB         4.0410   53.5080   65.0320 C.3    39  GLU39       0.0402
      6  CG         4.8460   54.7110   64.5860 C.3    39  GLU39       0.1161
      7  CD         3.9780   55.9470   64.4120 C.2    39  GLU39       0.3649
      8  OE1        2.7440   55.8650   64.6150 O.co2  39  GLU39      -0.2457
      9  OE2        4.5430   57.0080   64.0910 O.co2  39  GLU39      -0.2457
     10  N          5.5880   52.0270   67.4320 N.am   40  TYR40      -0.1976
     11  CA         6.4970   52.1160   68.5560 C.3    40  TYR40       0.1639
     12  C          6.5200   50.7400   69.2150 C.2    40  TYR40       0.2290
     13  O          5.5140   50.2710   69.7210 O.2    40  TYR40      -0.2864
     14  CB         6.0440   53.2080   69.5350 C.3    40  TYR40       0.0560
     15  CG         5.9540   54.5810   68.8870 C.ar   40  TYR40      -0.0198
     16  CD1        7.1140   55.3200   68.6200 C.ar   40  TYR40      -0.0009
     17  CD2        4.7280   55.1330   68.5330 C.ar   40  TYR40      -0.0009
     18  CE1        7.0550   56.5680   68.0300 C.ar   40  TYR40       0.0417
     19  CE2        4.6470   56.3960   67.9370 C.ar   40  TYR40       0.0417
     20  CZ         5.8160   57.1130   67.6870 C.ar   40  TYR40       0.1957
     21  OH         5.7790   58.3700   67.0930 O.3    40  TYR40      -0.2866
     22  N          3.6200   62.1390   70.2350 N.3   379  PHE379     -0.1228
     23  CA         4.9260   61.7070   69.7010 C.3   379  PHE379      0.1721
     24  C          5.9860   62.4820   70.5140 C.2   379  PHE379      0.2437
     25  O          5.6490   63.4260   71.2110 O.2   379  PHE379     -0.2733
     26  CB         5.0710   62.0380   68.1940 C.3   379  PHE379      0.0547
     27  CG         4.8220   63.5000   67.8700 C.ar  379  PHE379     -0.0202
     28  CD1        5.8630   64.4330   67.8960 C.ar  379  PHE379     -0.0042
     29  CD2        3.5310   63.9420   67.5770 C.ar  379  PHE379     -0.0042
     30  CE1        5.6290   65.7980   67.6150 C.ar  379  PHE379     -0.0003
     31  CE2        3.2710   65.2910   67.3010 C.ar  379  PHE379     -0.0003
     32  CZ         4.3250   66.2270   67.3190 C.ar  379  PHE379     -0.0000
     33  N          7.2600   62.0620   70.4530 N.am  380  PRO380     -0.2729
     34  CA         8.3050   62.7940   71.1760 C.3   380  PRO380      0.1401
     35  C          8.5480   64.1890   70.5890 C.2   380  PRO380      0.2269
     36  O          8.7000   64.3510   69.3730 O.2   380  PRO380     -0.2865
     37  CB         9.5570   61.9310   70.9620 C.3   380  PRO380      0.0296
     38  CG         9.0340   60.5620   70.5720 C.3   380  PRO380      0.0237
     39  CD         7.7740   60.8550   69.7930 C.3   380  PRO380      0.0939
     40  N         10.0520   67.4630   69.2130 N.3   382  ILE382     -0.1245
     41  CA        11.2820   67.8840   68.5230 C.3   382  ILE382      0.1561
     42  C         11.5040   69.3310   68.9360 C.2   382  ILE382      0.2260
     43  O         10.6530   70.1660   68.7100 O.2   382  ILE382     -0.2867
     44  CB        11.1610   67.7850   66.9720 C.3   382  ILE382      0.0252
     45  CG1       10.8630   66.3340   66.5750 C.3   382  ILE382      0.0019
     46  CG2       12.4550   68.3060   66.3480 C.3   382  ILE382      0.0019
     47  CD1       10.5330   66.1000   65.1090 C.3   382  ILE382      0.0001
     48  N         16.1470   66.4310   60.3590 N.3   392  ILE392     -0.1231
     49  CA        14.7060   66.1950   60.3680 C.3   392  ILE392      0.1692
     50  C         14.2720   65.2280   61.4910 C.2   392  ILE392      0.2592
     51  O         13.2950   65.4820   62.1800 O.2   392  ILE392     -0.2718
     52  CB        14.1940   65.7430   58.9850 C.3   392  ILE392      0.0266
     53  CG1       14.4350   66.8340   57.9380 C.3   392  ILE392      0.0019
     54  CG2       12.7000   65.4220   59.0280 C.3   392  ILE392      0.0020
     55  CD1       14.2660   66.3410   56.4720 C.3   392  ILE392      0.0001
     56  N         15.0320   64.1550   61.6850 N.am  393  HIS393     -0.1976
     57  CA        14.7280   63.1780   62.7350 C.3   393  HIS393      0.1656
     58  C         15.6090   63.3300   63.9940 C.2   393  HIS393      0.2291
     59  O         16.2580   62.3520   64.4310 O.2   393  HIS393     -0.2864
     60  CB        14.8180   61.7650   62.1480 C.3   393  HIS393      0.0771
     61  CG        14.0480   61.6020   60.8750 C.ar  393  HIS393      0.0820
     62  ND1       12.6860   61.3860   60.8560 N.ar  393  HIS393     -0.2267
     63  CD2       14.4370   61.6640   59.5790 C.ar  393  HIS393      0.1154
     64  CE1       12.2710   61.3040   59.6030 C.ar  393  HIS393      0.1986
     65  NE2       13.3120   61.4760   58.8080 N.ar  393  HIS393     -0.2212
     66  N          8.2990   71.0900   67.3810 N.3   413  ASP413     -0.1239
     67  CA         7.2160   70.2290   66.8620 C.3   413  ASP413      0.1674
     68  C          6.7640   69.3760   68.0120 C.2   413  ASP413      0.2266
     69  O          7.5660   68.6490   68.6200 O.2   413  ASP413     -0.2867
     70  CB         7.7600   69.3520   65.7180 C.3   413  ASP413      0.1410
     71  CG         6.6670   68.5340   65.0250 C.2   413  ASP413      0.3668
     72  OD1        5.5030   68.5120   65.4850 O.co2 413  ASP413     -0.2456
     73  OD2        6.9610   67.9390   63.9690 O.co2 413  ASP413     -0.2456
     74  N         10.5320   65.3410   52.7390 N.3   483  HIS483     -0.1226
     75  CA         9.4470   64.6420   53.4220 C.3   483  HIS483      0.1752
     76  C          8.1170   64.9880   52.8010 C.2   483  HIS483      0.2596
     77  O          8.0100   65.9160   52.0390 O.2   483  HIS483     -0.2718
     78  CB         9.4340   64.9040   54.9470 C.3   483  HIS483      0.0759
     79  CG         9.2640   66.3380   55.3560 C.ar  483  HIS483      0.0818
     80  ND1        8.0570   67.0050   55.2710 N.ar  483  HIS483     -0.2268
     81  CD2       10.1270   67.2030   55.9490 C.ar  483  HIS483      0.1154
     82  CE1        8.1880   68.2210   55.7730 C.ar  483  HIS483      0.1986
     83  NE2        9.4380   68.3700   56.1850 N.ar  483  HIS483     -0.2212
     84  N          7.1040   64.2050   53.1510 N.am  484  GLY484     -0.1957
     85  CA         5.7670   64.4590   52.6790 C.3   484  GLY484      0.1869
     86  C          5.1720   65.7390   53.2280 C.2   484  GLY484      0.2309
     87  O          5.6070   66.2490   54.2580 O.2   484  GLY484     -0.2863
     88  N          1.9610   66.0650   54.2410 N.3   486  GLY486     -0.1210
     89  CA         0.9840   65.8330   55.3220 C.3   486  GLY486      0.1956
     90  C          0.6000   64.3860   55.4690 C.2   486  GLY486      0.2611
     91  O          0.8860   63.5640   54.5830 O.2   486  GLY486     -0.2717
     92  N         -0.0570   64.0780   56.5820 N.am  487  HIS487     -0.1975
     93  CA        -0.5450   62.7310   56.8560 C.3   487  HIS487      0.1656
     94  C         -1.9270   62.8670   57.5000 C.2   487  HIS487      0.2291
     95  O         -2.2540   63.9150   58.0770 O.2   487  HIS487     -0.2864
     96  CB         0.3860   61.9880   57.8210 C.3   487  HIS487      0.0771
     97  CG         0.7290   62.7800   59.0430 C.ar  487  HIS487      0.0820
     98  ND1       -0.0710   62.8000   60.1640 N.ar  487  HIS487     -0.2267
     99  CD2        1.7880   63.5890   59.3140 C.ar  487  HIS487      0.1154
    100  CE1        0.4720   63.6020   61.0700 C.ar  487  HIS487      0.1986
    101  NE2        1.5940   64.1010   60.5760 N.ar  487  HIS487     -0.2212
    102  N         -0.2150   59.6170   63.2980 N.3   496  HIS496     -0.1241
    103  CA         0.0520   59.2200   61.9110 C.3   496  HIS496      0.1621
    104  C         -0.9440   58.1520   61.4930 C.2   496  HIS496      0.2264
    105  O         -0.7490   56.9630   61.7850 O.2   496  HIS496     -0.2867
    106  CB         1.4930   58.6980   61.8120 C.3   496  HIS496      0.0745
    107  CG         2.4930   59.6840   62.3060 C.ar  496  HIS496      0.0817
    108  ND1        3.4740   59.3600   63.2220 N.ar  496  HIS496     -0.2268
    109  CD2        2.6420   61.0080   62.0420 C.ar  496  HIS496      0.1154
    110  CE1        4.2080   60.4320   63.4730 C.ar  496  HIS496      0.1986
    111  NE2        3.7120   61.4490   62.7880 N.ar  496  HIS496     -0.2212
    112  N          2.1580   70.5740   56.2850 N.3   521  GLU521     -0.1245
    113  CA         3.4460   70.7810   56.9670 C.3   521  GLU521      0.1567
    114  C          4.6980   70.7940   56.0710 C.2   521  GLU521      0.2260
    115  O          5.6280   70.0160   56.2730 O.2   521  GLU521     -0.2867
    116  CB         3.5740   69.7840   58.1490 C.3   521  GLU521      0.0388
    117  CG         3.5470   68.2870   57.7880 C.3   521  GLU521      0.1160
    118  CD         3.8330   67.4520   59.0210 C.2   521  GLU521      0.3649
    119  OE1        4.8480   67.7680   59.7020 O.co2 521  GLU521     -0.2457
    120  OE2        3.0850   66.4750   59.2880 O.co2 521  GLU521     -0.2457
    121  N          9.8060   74.4590   59.7510 N.3   533  ARG533     -0.1245
    122  CA         8.6020   73.7170   59.3740 C.3   533  ARG533      0.1563
    123  C          7.4210   74.4740   59.9520 C.2   533  ARG533      0.2260
    124  O          7.4960   74.9790   61.0860 O.2   533  ARG533     -0.2867
    125  CB         8.6510   72.2550   59.8640 C.3   533  ARG533      0.0307
    126  CG         7.3890   71.4540   59.5100 C.3   533  ARG533      0.0489
    127  CD         7.5540   69.9490   59.7140 C.3   533  ARG533      0.2205
    128  NE         7.9320   69.5470   61.0800 N.pl3 533  ARG533     -0.0865
    129  CZ         9.1540   69.1480   61.4510 C.cat 533  ARG533      0.5346
    130  NH1       10.1900   69.1550   60.5880 N.pl3 533  ARG533      0.1354
    131  NH2        9.3490   68.7590   62.7160 N.pl3 533  ARG533      0.1354
@<TRIPOS>BOND
     1    77    76    2
     2    85    84    1
     3    85    86    1
     4    74    75    1
     5    76    84   am
     6    76    75    1
     7    86    87    2
     8    75    78    1
     9    88    89    1
    10    91    90    2
    11    78    79    1
    12    80    79   ar
    13    80    82   ar
    14    89    90    1
    15    79    81   ar
    16    90    92   am
    17    82    83   ar
    18    81    83   ar
    19   114   115    2
    20   114   113    1
    21   112   113    1
    22    55    53    1
    23    92    93    1
    24    93    94    1
    25    93    96    1
    26   113   116    1
    27    94    95    2
    28   117   116    1
    29   117   118    1
    30    96    97    1
    31    53    52    1
    32    65    63   ar
    33    65    64   ar
    34    52    54    1
    35    52    49    1
    36   118   120   ar
    37   118   119   ar
    38    97    99   ar
    39    97    98   ar
    40    99   101   ar
    41   122   121    1
    42   122   125    1
    43   122   123    1
    44   126   127    1
    45   126   125    1
    46    63    61   ar
    47    64    62   ar
    48   127   128    1
    49   123   124    2
    50    98   100   ar
    51    48    49    1
    52    49    50    1
    53   101   100   ar
    54   130   129    1
    55    62    61   ar
    56    61    60    1
    57   128   129    2
    58   129   131    1
    59    50    56   am
    60    50    51    2
    61   104   105    2
    62   104   103    1
    63    56    57    1
    64   106   103    1
    65   106   107    1
    66   103   102    1
    67   109   107   ar
    68   109   111   ar
    69    60    57    1
    70   107   108   ar
    71    57    58    1
    72   111   110   ar
    73   108   110   ar
    74    73    71   ar
    75    58    59    2
    76     9     7   ar
    77     7     6    1
    78     7     8   ar
    79     6     5    1
    80    71    72   ar
    81    71    70    1
    82     5     2    1
    83    47    45    1
    84     2     1    1
    85     2     3    1
    86    70    67    1
    87     4     3    2
    88     3    10   am
    89    46    44    1
    90    45    44    1
    91    67    66    1
    92    67    68    1
    93    44    41    1
    94    21    20    1
    95    31    32   ar
    96    31    29   ar
    97    32    30   ar
    98    10    11    1
    99    29    27   ar
   100    30    28   ar
   101    20    19   ar
   102    20    18   ar
   103    27    28   ar
   104    27    26    1
   105    19    17   ar
   106    68    69    2
   107    18    16   ar
   108    26    23    1
   109    41    42    1
   110    41    40    1
   111    17    15   ar
   112    11    12    1
   113    11    14    1
   114    16    15   ar
   115    43    42    2
   116    15    14    1
   117    12    13    2
   118    36    35    2
   119    23    22    1
   120    23    24    1
   121    39    33    1
   122    39    38    1
   123    33    24   am
   124    33    34    1
   125    24    25    2
   126    38    37    1
   127    35    34    1
   128    37    34    1
