@<TRIPOS>MOLECULE
tmp/3cu0B00.pdb
 118 112 0 0 0
SMALL
GASTEIGER

@<TRIPOS>ATOM
      1  N         21.3660   18.6390   39.3570 N.3    68  ARG68      -0.1245
      2  CA        20.7130   17.3360   39.3340 C.3    68  ARG68       0.1563
      3  C         19.2000   17.4890   39.3080 C.2    68  ARG68       0.2260
      4  O         18.4890   16.5370   39.6130 O.2    68  ARG68      -0.2867
      5  CB        21.0830   16.5760   40.6060 C.3    68  ARG68       0.0307
      6  CG        22.5730   16.5050   40.8730 C.3    68  ARG68       0.0489
      7  CD        22.8660   15.9770   42.2700 C.3    68  ARG68       0.2205
      8  NE        22.5840   16.9690   43.3030 N.pl3  68  ARG68      -0.0865
      9  CZ        22.8860   16.8130   44.5880 C.cat  68  ARG68       0.5346
     10  NH1       23.4840   15.7020   45.0030 N.pl3  68  ARG68       0.1354
     11  NH2       22.5790   17.7650   45.4590 N.pl3  68  ARG68       0.1354
     12  N         22.0660    0.7210   37.6470 N.3   133  VAL133     -0.1231
     13  CA        22.3130    1.9030   38.4580 C.3   133  VAL133      0.1692
     14  C         23.2910    1.5680   39.5890 C.2   133  VAL133      0.2593
     15  O         23.4920    0.3980   39.9250 O.2   133  VAL133     -0.2718
     16  CB        20.9660    2.4610   39.0290 C.3   133  VAL133      0.0266
     17  CG1       20.4520    1.5740   40.1610 C.3   133  VAL133      0.0020
     18  CG2       21.1330    3.9040   39.4670 C.3   133  VAL133      0.0020
     19  N         23.9230    2.5950   40.1480 N.am  134  GLY134     -0.1942
     20  CA        24.8680    2.3800   41.2320 C.3   134  GLY134      0.2014
     21  C         26.0150    1.4470   40.8820 C.2   134  GLY134      0.2639
     22  O         26.6500    0.8830   41.7710 O.2   134  GLY134     -0.2714
     23  N         26.2800    1.2810   39.5890 N.am  135  GLY135     -0.1954
     24  CA        27.3590    0.4100   39.1520 C.3   135  GLY135      0.1869
     25  C         27.0330   -1.0760   39.1600 C.2   135  GLY135      0.2309
     26  O         27.9280   -1.9100   39.0160 O.2   135  GLY135     -0.2863
     27  N         19.9560   -2.5510   41.3850 N.3   139  GLU139     -0.1245
     28  CA        20.0900   -2.2050   42.7840 C.3   139  GLU139      0.1567
     29  C         18.6790   -2.3440   43.3280 C.2   139  GLU139      0.2260
     30  O         17.7220   -1.9370   42.6750 O.2   139  GLU139     -0.2867
     31  CB        20.5760   -0.7580   42.8940 C.3   139  GLU139      0.0388
     32  CG        21.0650   -0.3210   44.2620 C.3   139  GLU139      0.1160
     33  CD        21.6620    1.0760   44.2240 C.2   139  GLU139      0.3649
     34  OE1       21.0030    1.9760   43.6640 O.co2 139  GLU139     -0.2457
     35  OE2       22.7780    1.2740   44.7550 O.co2 139  GLU139     -0.2457
     36  N         27.8400    0.8380   45.9790 N.3   155  TRP155     -0.1241
     37  CA        28.3700    2.1940   46.0820 C.3   155  TRP155      0.1605
     38  C         27.9000    2.8130   47.4050 C.2   155  TRP155      0.2264
     39  O         26.6970    2.9130   47.6570 O.2   155  TRP155     -0.2867
     40  CB        27.8960    3.0230   44.8930 C.3   155  TRP155      0.0550
     41  CG        28.5470    4.3530   44.8380 C.ar  155  TRP155      0.0003
     42  CD1       29.8570    4.6210   44.5620 C.ar  155  TRP155      0.0946
     43  CD2       27.9270    5.6040   45.1140 C.ar  155  TRP155      0.0152
     44  NE1       30.0900    5.9730   44.6520 N.ar  155  TRP155     -0.2442
     45  CE2       28.9210    6.5990   44.9930 C.ar  155  TRP155      0.0810
     46  CE3       26.6240    5.9820   45.4560 C.ar  155  TRP155      0.0012
     47  CZ2       28.6490    7.9510   45.2040 C.ar  155  TRP155      0.0191
     48  CZ3       26.3550    7.3190   45.6630 C.ar  155  TRP155      0.0001
     49  CH2       27.3630    8.2900   45.5370 C.ar  155  TRP155      0.0015
     50  N         24.5010    5.1980   52.8980 N.3   159  ARG159     -0.1245
     51  CA        23.3260    6.0180   52.6400 C.3   159  ARG159      0.1563
     52  C         22.1670    5.3630   53.3670 C.2   159  ARG159      0.2260
     53  O         21.9780    4.1600   53.2690 O.2   159  ARG159     -0.2867
     54  CB        23.0070    6.0210   51.1500 C.3   159  ARG159      0.0307
     55  CG        24.0540    6.6220   50.2430 C.3   159  ARG159      0.0489
     56  CD        23.6750    6.4450   48.7850 C.3   159  ARG159      0.2205
     57  NE        23.9830    5.0970   48.3150 N.pl3 159  ARG159     -0.0865
     58  CZ        23.4460    4.5360   47.2350 C.cat 159  ARG159      0.5346
     59  NH1       22.5540    5.2030   46.5140 N.pl3 159  ARG159      0.1354
     60  NH2       23.8380    3.3260   46.8480 N.pl3 159  ARG159      0.1354
     61  N         18.0380    4.6460   44.0860 N.3   164  ASP164     -0.1225
     62  CA        18.0090    5.6960   43.0850 C.3   164  ASP164      0.1805
     63  C         16.6640    6.4140   43.0820 C.2   164  ASP164      0.2597
     64  O         15.6510    5.8760   43.5300 O.2   164  ASP164     -0.2718
     65  CB        18.2890    5.1140   41.6940 C.3   164  ASP164      0.1424
     66  CG        18.2670    6.1720   40.6040 C.2   164  ASP164      0.3668
     67  OD1       17.3130    6.1870   39.7890 O.co2 164  ASP164     -0.2456
     68  OD2       19.2060    6.9940   40.5670 O.co2 164  ASP164     -0.2456
     69  N         16.6790    7.6360   42.5650 N.am  165  MET165     -0.1979
     70  CA        15.4920    8.4750   42.4600 C.3   165  MET165      0.1605
     71  C         14.3390    7.7140   41.8000 C.2   165  MET165      0.2287
     72  O         13.1740    7.9090   42.1440 O.2   165  MET165     -0.2864
     73  CB        15.8280    9.7170   41.6260 C.3   165  MET165      0.0413
     74  CG        14.7530   10.7880   41.6020 C.3   165  MET165      0.0598
     75  SD        14.6870   11.6830   43.1520 S.3   165  MET165     -0.1393
     76  CE        13.3430   11.0030   43.8420 C.3   165  MET165      0.0692
     77  N         27.0150   13.9250   46.8640 N.3   189  ARG189     -0.1231
     78  CA        26.7590   12.9540   45.8070 C.3   189  ARG189      0.1694
     79  C         26.1550   11.6690   46.3720 C.2   189  ARG189      0.2592
     80  O         26.6780   11.0940   47.3260 O.2   189  ARG189     -0.2718
     81  CB        28.0670   12.6280   45.0780 C.3   189  ARG189      0.0321
     82  CG        27.7730   11.7590   43.8680 C.3   189  ARG189      0.0489
     83  CD        29.0550   11.4890   43.1140 C.3   189  ARG189      0.2205
     84  NE        30.0470   10.9520   44.0200 N.pl3 189  ARG189     -0.0865
     85  CZ        31.3050   11.3760   43.9340 C.cat 189  ARG189      0.5346
     86  NH1       31.6360   12.2810   43.0140 N.pl3 189  ARG189      0.1354
     87  NH2       32.2250   10.9180   44.7830 N.pl3 189  ARG189      0.1354
     88  N         25.0430   11.2360   45.7820 N.am  190  GLY190     -0.1957
     89  CA        24.3860   10.0140   46.2140 C.3   190  GLY190      0.1869
     90  C         23.4730   10.1050   47.4250 C.2   190  GLY190      0.2309
     91  O         22.8040    9.1310   47.7650 O.2   190  GLY190     -0.2863
     92  N         21.0680   12.5420   47.7320 N.3   192  LEU192     -0.1231
     93  CA        19.8930   13.3250   47.3780 C.3   192  LEU192      0.1693
     94  C         18.5980   12.6130   47.7820 C.2   192  LEU192      0.2591
     95  O         17.7540   13.1910   48.4630 O.2   192  LEU192     -0.2718
     96  CB        19.8850   13.6190   45.8720 C.3   192  LEU192      0.0284
     97  CG        18.8280   14.6210   45.4050 C.3   192  LEU192      0.0019
     98  CD1       19.0940   15.9720   46.0670 C.3   192  LEU192      0.0001
     99  CD2       18.8620   14.7600   43.8910 C.3   192  LEU192      0.0001
    100  N         18.4500   11.3570   47.3700 N.am  193  GLU193     -0.1979
    101  CA        17.2510   10.5920   47.6960 C.3   193  GLU193      0.1602
    102  C         17.0430   10.5080   49.2100 C.2   193  GLU193      0.2287
    103  O         15.9280   10.6690   49.7000 O.2   193  GLU193     -0.2864
    104  CB        17.3360    9.1830   47.0880 C.3   193  GLU193      0.0415
    105  CG        17.3500    9.1560   45.5570 C.3   193  GLU193      0.1163
    106  CD        18.7410    9.3460   44.9600 C.2   193  GLU193      0.3649
    107  OE1       19.6980    9.6360   45.7090 O.co2 193  GLU193     -0.2457
    108  OE2       18.8790    9.2030   43.7280 O.co2 193  GLU193     -0.2457
    109  N         17.9470    2.8020   34.7160 N.3   220  HIS220     -0.1241
    110  CA        18.6320    4.0910   34.8000 C.3   220  HIS220      0.1621
    111  C         19.5280    4.3460   33.5780 C.2   220  HIS220      0.2264
    112  O         20.7340    4.5590   33.6960 O.2   220  HIS220     -0.2867
    113  CB        19.4430    4.1390   36.1070 C.3   220  HIS220      0.0745
    114  CG        19.9780    5.4970   36.4560 C.ar  220  HIS220      0.0817
    115  ND1       21.1480    5.9970   35.9250 N.ar  220  HIS220     -0.2268
    116  CD2       19.5040    6.4550   37.2890 C.ar  220  HIS220      0.1154
    117  CE1       21.3740    7.2050   36.4160 C.ar  220  HIS220      0.1986
    118  NE2       20.3910    7.5070   37.2460 N.ar  220  HIS220     -0.2212
@<TRIPOS>BOND
     1   111   112    2
     2   111   110    1
     3   109   110    1
     4   110   113    1
     5   115   117   ar
     6   115   114   ar
     7   113   114    1
     8   117   118   ar
     9   114   116   ar
    10   118   116   ar
    11    12    13    1
    12    13    16    1
    13    13    14    1
    14    26    25    2
    15    16    18    1
    16    16    17    1
    17    24    25    1
    18    24    23    1
    19     3     2    1
    20     3     4    2
    21     2     1    1
    22     2     5    1
    23    14    15    2
    24    14    19   am
    25    23    21   am
    26    67    66   ar
    27    19    20    1
    28    68    66   ar
    29    66    65    1
    30     5     6    1
    31     6     7    1
    32    21    20    1
    33    21    22    2
    34    27    28    1
    35    74    73    1
    36    74    75    1
    37    73    70    1
    38    65    62    1
    39    71    72    2
    40    71    70    1
    41     7     8    1
    42    70    69    1
    43    69    63   am
    44    30    29    2
    45    28    31    1
    46    28    29    1
    47    31    32    1
    48    86    85    1
    49    63    62    1
    50    63    64    2
    51    62    61    1
    52    83    82    1
    53    83    84    1
    54    75    76    1
    55     8     9    2
    56    34    33   ar
    57   108   106   ar
    58    82    81    1
    59    99    97    1
    60    85    84    2
    61    85    87    1
    62    33    32    1
    63    33    35   ar
    64    42    44   ar
    65    42    41   ar
    66     9    10    1
    67     9    11    1
    68    44    45   ar
    69    41    40    1
    70    41    43   ar
    71    40    37    1
    72   106   105    1
    73   106   107   ar
    74    45    43   ar
    75    45    47   ar
    76    81    78    1
    77    43    46   ar
    78    47    49   ar
    79    97    96    1
    80    97    98    1
    81    46    48   ar
    82    49    48   ar
    83   105   104    1
    84    88    89    1
    85    88    79   am
    86    78    79    1
    87    78    77    1
    88    96    93    1
    89    36    37    1
    90    37    38    1
    91    89    90    1
    92    79    80    2
    93    59    58    1
    94    60    58    1
    95   104   101    1
    96    58    57    2
    97   100   101    1
    98   100    94   am
    99    93    92    1
   100    93    94    1
   101    38    39    2
   102    90    91    2
   103   101   102    1
   104    94    95    2
   105    57    56    1
   106    56    55    1
   107   102   103    2
   108    55    54    1
   109    54    51    1
   110    51    50    1
   111    51    52    1
   112    53    52    2
