@<TRIPOS>MOLECULE
tmp/3cu2A00.pdb
 95 90 0 0 0
SMALL
GASTEIGER

@<TRIPOS>ATOM
      1  N         57.1360   56.3080   11.8470 N.3    14  LEU14      -0.1245
      2  CA        57.1470   56.5010   10.3890 C.3    14  LEU14       0.1561
      3  C         57.5960   55.2290    9.6740 C.2    14  LEU14       0.2260
      4  O         58.6740   54.7060    9.9390 O.2    14  LEU14      -0.2867
      5  CB        58.1010   57.6710   10.0410 C.3    14  LEU14       0.0270
      6  CG        58.1590   58.3020    8.6640 C.3    14  LEU14       0.0019
      7  CD1       56.8220   59.0120    8.3070 C.3    14  LEU14       0.0001
      8  CD2       59.3580   59.2820    8.5740 C.3    14  LEU14       0.0001
      9  N         51.7090   64.0330    3.4310 N.3   193  THR193     -0.1203
     10  CA        52.3180   65.3580    3.3720 C.3   193  THR193      0.1994
     11  C         52.5260   65.8380    4.7870 C.2   193  THR193      0.2617
     12  O         52.0060   65.2290    5.7110 O.2   193  THR193     -0.2717
     13  CB        51.3880   66.3300    2.6300 C.3   193  THR193      0.1784
     14  OG1       50.1210   66.4260    3.3130 O.3   193  THR193     -0.2211
     15  CG2       51.1830   65.8430    1.2010 C.3   193  THR193      0.0376
     16  N         53.3260   66.8840    4.9960 N.am  194  LEU194     -0.1979
     17  CA        53.5510   67.3540    6.3650 C.3   194  LEU194      0.1596
     18  C         52.2450   67.8690    6.9610 C.2   194  LEU194      0.2287
     19  O         52.0180   67.7440    8.1730 O.2   194  LEU194     -0.2864
     20  CB        54.6290   68.4450    6.4290 C.3   194  LEU194      0.0297
     21  CG        55.0350   69.0080    7.8080 C.3   194  LEU194      0.0022
     22  CD1       55.7070   67.9950    8.7680 C.3   194  LEU194      0.0001
     23  CD2       55.9660   70.1980    7.6000 C.3   194  LEU194      0.0001
     24  N         50.1470   64.9810    7.9940 N.3   197  ALA197     -0.1245
     25  CA        50.8270   64.3790    9.1390 C.3   197  ALA197      0.1562
     26  C         50.4650   65.1130   10.4340 C.2   197  ALA197      0.2260
     27  O         50.1800   64.4880   11.4690 O.2   197  ALA197     -0.2867
     28  CB        52.3930   64.3330    8.9190 C.3   197  ALA197      0.0290
     29  N         52.6410   56.5080   10.3730 N.3   210  LEU210     -0.1231
     30  CA        52.2380   57.1560    9.1410 C.3   210  LEU210      0.1693
     31  C         53.2420   56.6350    8.1130 C.2   210  LEU210      0.2592
     32  O         54.4340   56.5190    8.4020 O.2   210  LEU210     -0.2718
     33  CB        52.3480   58.6940    9.2120 C.3   210  LEU210      0.0284
     34  CG        51.4870   59.5280   10.1780 C.3   210  LEU210      0.0019
     35  CD1       51.8810   60.9920   10.1120 C.3   210  LEU210      0.0001
     36  CD2       50.0180   59.3750    9.8560 C.3   210  LEU210      0.0001
     37  N         52.7500   56.3740    6.9210 N.am  211  VAL211     -0.1966
     38  CA        53.5740   55.9160    5.8080 C.3   211  VAL211      0.1727
     39  C         53.9570   57.1110    4.9260 C.2   211  VAL211      0.2617
     40  O         53.1090   57.9180    4.4900 O.2   211  VAL211     -0.2715
     41  CB        52.8440   54.8410    4.9460 C.3   211  VAL211      0.0290
     42  CG1       53.7890   54.3370    3.8300 C.3   211  VAL211      0.0023
     43  CG2       52.3410   53.7030    5.8230 C.3   211  VAL211      0.0023
     44  N         55.2530   57.2460    4.7060 N.am  212  SER212     -0.1936
     45  CA        55.7780   58.3020    3.8460 C.3   212  SER212      0.2055
     46  C         55.7520   57.9040    2.3710 C.2   212  SER212      0.2643
     47  O         55.8070   56.7180    2.0150 O.2   212  SER212     -0.2714
     48  CB        57.2040   58.6890    4.2480 C.3   212  SER212      0.2130
     49  OG        58.1540   57.7240    3.8750 O.3   212  SER212     -0.2179
     50  N         55.7080   58.9320    1.5380 N.am  213  GLY213     -0.1954
     51  CA        55.6750   58.7810    0.0860 C.3   213  GLY213      0.1869
     52  C         56.6740   59.6630   -0.6230 C.2   213  GLY213      0.2309
     53  O         57.7970   59.8260   -0.1940 O.2   213  GLY213     -0.2863
     54  N         56.6600   62.8010   -0.8330 N.3   215  ALA215     -0.1231
     55  CA        56.9560   64.0870   -0.1430 C.3   215  ALA215      0.1694
     56  C         58.2710   64.0330    0.6350 C.2   215  ALA215      0.2591
     57  O         59.0420   64.9900    0.6140 O.2   215  ALA215     -0.2718
     58  CB        55.7770   64.5460    0.7480 C.3   215  ALA215      0.0304
     59  N         58.5690   62.9040    1.2740 N.am  216  LEU216     -0.1980
     60  CA        59.8130   62.7830    2.0330 C.3   216  LEU216      0.1596
     61  C         61.0570   62.9740    1.1530 C.2   216  LEU216      0.2287
     62  O         62.1290   63.4070    1.6180 O.2   216  LEU216     -0.2864
     63  CB        59.9030   61.4290    2.6990 C.3   216  LEU216      0.0297
     64  CG        60.9870   61.2270    3.7500 C.3   216  LEU216      0.0022
     65  CD1       60.8770   62.2260    4.8890 C.3   216  LEU216      0.0001
     66  CD2       60.9420   59.7680    4.2530 C.3   216  LEU216      0.0001
     67  N         64.2620   67.0470    4.9710 N.3   224  ASN224     -0.1240
     68  CA        62.8770   66.7020    5.2730 C.3   224  ASN224      0.1653
     69  C         62.7290   65.9580    6.6010 C.2   224  ASN224      0.2266
     70  O         61.7090   66.0750    7.2950 O.2   224  ASN224     -0.2867
     71  CB        62.2600   65.9260    4.1110 C.3   224  ASN224      0.1155
     72  CG        62.0510   66.7930    2.8990 C.2   224  ASN224      0.2627
     73  OD1       61.7940   67.9930    3.0330 O.2   224  ASN224     -0.2716
     74  ND2       62.1360   66.2040    1.7090 N.am  224  ASN224     -0.0877
     75  N         62.6680   68.3470    9.4100 N.3   227  VAL227     -0.1231
     76  CA        61.3550   68.9620    9.5750 C.3   227  VAL227      0.1692
     77  C         60.3970   67.9980   10.2640 C.2   227  VAL227      0.2592
     78  O         59.6440   68.3750   11.1510 O.2   227  VAL227     -0.2718
     79  CB        60.7320   69.3700    8.2290 C.3   227  VAL227      0.0266
     80  CG1       59.2610   69.7580    8.4290 C.3   227  VAL227      0.0020
     81  CG2       61.5410   70.5030    7.5850 C.3   227  VAL227      0.0020
     82  N         60.4080   66.7460    9.8220 N.am  228  TRP228     -0.1976
     83  CA        59.5520   65.7280   10.4050 C.3   228  TRP228      0.1640
     84  C         59.8280   65.6910   11.8980 C.2   228  TRP228      0.2290
     85  O         58.9110   65.6550   12.7110 O.2   228  TRP228     -0.2864
     86  CB        59.8690   64.3610    9.7900 C.3   228  TRP228      0.0576
     87  CG        59.3680   63.2150   10.5540 C.ar  228  TRP228      0.0006
     88  CD1       60.1030   62.3390   11.3130 C.ar  228  TRP228      0.0946
     89  CD2       58.0040   62.8050   10.6740 C.ar  228  TRP228      0.0152
     90  NE1       59.2660   61.3990   11.8910 N.ar  228  TRP228     -0.2442
     91  CE2       57.9780   61.6590   11.5030 C.ar  228  TRP228      0.0810
     92  CE3       56.8060   63.2750   10.1370 C.ar  228  TRP228      0.0012
     93  CZ2       56.7970   60.9950   11.8130 C.ar  228  TRP228      0.0191
     94  CZ3       55.6470   62.6120   10.4460 C.ar  228  TRP228      0.0001
     95  CH2       55.6500   61.4830   11.2770 C.ar  228  TRP228      0.0015
@<TRIPOS>BOND
     1    54    55    1
     2    52    53    2
     3    52    51    1
     4    55    56    1
     5    55    58    1
     6    51    50    1
     7    57    56    2
     8    56    59   am
     9    61    62    2
    10    61    60    1
    11    15    13    1
    12    59    60    1
    13    50    46   am
    14    74    72   am
    15    47    46    2
    16    60    63    1
    17    46    45    1
    18    13    14    1
    19    13    10    1
    20    63    64    1
    21    72    73    2
    22    72    71    1
    23    10     9    1
    24    10    11    1
    25    64    66    1
    26    64    65    1
    27    42    41    1
    28    45    48    1
    29    45    44    1
    30    49    48    1
    31    71    68    1
    32    40    39    2
    33    44    39   am
    34    11    16   am
    35    11    12    2
    36    39    38    1
    37    41    38    1
    38    41    43    1
    39    67    68    1
    40    16    17    1
    41    68    69    1
    42    38    37    1
    43    17    20    1
    44    17    18    1
    45    20    21    1
    46    69    70    2
    47    37    31   am
    48    18    19    2
    49    81    79    1
    50    23    21    1
    51    21    22    1
    52    24    25    1
    53    31    32    2
    54    31    30    1
    55    79    80    1
    56    79    76    1
    57     7     6    1
    58     8     6    1
    59     6     5    1
    60    28    25    1
    61    25    26    1
    62    30    33    1
    63    30    29    1
    64    33    34    1
    65    75    76    1
    66    76    77    1
    67     3     4    2
    68     3     2    1
    69    86    83    1
    70    86    87    1
    71    82    77   am
    72    82    83    1
    73    36    34    1
    74     5     2    1
    75    35    34    1
    76    92    94   ar
    77    92    89   ar
    78    77    78    2
    79     2     1    1
    80    83    84    1
    81    26    27    2
    82    94    95   ar
    83    87    89   ar
    84    87    88   ar
    85    89    91   ar
    86    95    93   ar
    87    88    90   ar
    88    91    93   ar
    89    91    90   ar
    90    84    85    2
