@<TRIPOS>MOLECULE
tmp/3cu8A00.pdb
 252 237 0 0 0
SMALL
GASTEIGER

@<TRIPOS>ATOM
      1  N         34.1660    5.1800   10.5930 N.3    13  GLU13      -0.1245
      2  CA        34.8080    3.9000   10.3290 C.3    13  GLU13       0.1567
      3  C         33.7340    2.8890   10.0340 C.2    13  GLU13       0.2260
      4  O         33.8780    2.0840    9.1430 O.2    13  GLU13      -0.2867
      5  CB        35.7200    3.4090   11.4730 C.3    13  GLU13       0.0388
      6  CG        36.3810    2.0360   11.1670 C.3    13  GLU13       0.1160
      7  CD        37.0800    1.3900   12.3880 C.2    13  GLU13       0.3649
      8  OE1       36.8150    1.8000   13.5410 O.co2  13  GLU13      -0.2457
      9  OE2       37.8920    0.4780   12.2100 O.co2  13  GLU13      -0.2457
     10  N         44.1590    3.6030   21.5430 N.3    38  GLU38      -0.1245
     11  CA        42.9560    3.4620   20.7690 C.3    38  GLU38       0.1567
     12  C         42.9360    4.5620   19.6740 C.2    38  GLU38       0.2260
     13  O         42.4770    4.3120   18.5500 O.2    38  GLU38      -0.2867
     14  CB        41.6880    3.5420   21.6100 C.3    38  GLU38       0.0388
     15  CG        40.4410    3.6410   20.7200 C.3    38  GLU38       0.1160
     16  CD        39.0920    3.7320   21.4570 C.2    38  GLU38       0.3649
     17  OE1       38.8320    4.7500   22.1560 O.co2  38  GLU38      -0.2457
     18  OE2       38.2810    2.7750   21.2950 O.co2  38  GLU38      -0.2457
     19  N         45.7380    3.8010   16.9750 N.3    41  ASN41      -0.1225
     20  CA        45.2120    2.7760   16.0970 C.3    41  ASN41       0.1785
     21  C         44.1100    3.3220   15.1420 C.2    41  ASN41       0.2597
     22  O         44.0860    2.9090   13.9660 O.2    41  ASN41      -0.2718
     23  CB        44.7180    1.5440   16.8680 C.3    41  ASN41       0.1169
     24  CG        45.8350    0.8640   17.6780 C.2    41  ASN41       0.2627
     25  OD1       47.0260    1.0030   17.3610 O.2    41  ASN41      -0.2716
     26  ND2       45.4560    0.1910   18.7720 N.am   41  ASN41      -0.0877
     27  N         43.2490    4.2360   15.5960 N.am   42  LEU42      -0.1980
     28  CA        42.2560    4.7830   14.6670 C.3    42  LEU42       0.1596
     29  C         42.9310    5.5570   13.5240 C.2    42  LEU42       0.2287
     30  O         42.5500    5.4250   12.3730 O.2    42  LEU42      -0.2864
     31  CB        41.2530    5.6890   15.3750 C.3    42  LEU42       0.0297
     32  CG        40.3000    4.9420   16.3120 C.3    42  LEU42       0.0022
     33  CD1       39.4020    5.8910   17.2230 C.3    42  LEU42       0.0001
     34  CD2       39.5090    3.9870   15.5100 C.3    42  LEU42       0.0001
     35  N         45.8850    5.0480   12.3960 N.3    44  SER44      -0.1202
     36  CA        46.6700    4.1620   11.5340 C.3    44  SER44       0.2020
     37  C         45.7560    3.3840   10.5790 C.2    44  SER44       0.2618
     38  O         46.0680    3.2000    9.4310 O.2    44  SER44      -0.2717
     39  CB        47.3900    3.1980   12.4020 C.3    44  SER44       0.2103
     40  OG        48.0070    2.2410   11.6260 O.3    44  SER44      -0.2182
     41  N         44.6080    2.9390   11.0790 N.am   45  VAL45      -0.1979
     42  CA        43.6410    2.2340   10.2500 C.3    45  VAL45       0.1595
     43  C         43.1390    3.1860    9.1540 C.2    45  VAL45       0.2287
     44  O         43.0430    2.8390    8.0020 O.2    45  VAL45      -0.2864
     45  CB        42.3860    1.7680   11.1510 C.3    45  VAL45       0.0276
     46  CG1       41.1360    1.4410   10.2890 C.3    45  VAL45       0.0022
     47  CG2       42.7700    0.5760   12.0390 C.3    45  VAL45       0.0022
     48  N         45.8510    3.8870    6.5550 N.3    48  LYS48      -0.1231
     49  CA        46.1720    2.6640    5.8400 C.3    48  LYS48       0.1693
     50  C         45.0800    2.3800    4.8000 C.2    48  LYS48       0.2592
     51  O         45.3950    1.9520    3.6520 O.2    48  LYS48      -0.2718
     52  CB        46.3930    1.4710    6.7460 C.3    48  LYS48       0.0285
     53  CG        46.4720    0.1670    5.9130 C.3    48  LYS48       0.0035
     54  CD        46.4910   -1.1000    6.8330 C.3    48  LYS48       0.0206
     55  CE        47.5270   -0.9850    7.9700 C.3    48  LYS48       0.1093
     56  NZ        48.8920   -1.3100    7.4380 N.3    48  LYS48      -0.1314
     57  N         43.8190    2.5750    5.1770 N.am   49  ASN49      -0.1974
     58  CA        42.6860    2.3430    4.2260 C.3    49  ASN49       0.1688
     59  C         42.6470    3.3920    3.0800 C.2    49  ASN49       0.2292
     60  O         42.3250    3.0570    1.9090 O.2    49  ASN49      -0.2864
     61  CB        41.3290    2.3310    4.9260 C.3    49  ASN49       0.1181
     62  CG        41.1260    1.0630    5.7710 C.2    49  ASN49       0.2629
     63  OD1       40.0660    0.8510    6.3480 O.2    49  ASN49      -0.2716
     64  ND2       42.1410    0.2320    5.8470 N.am   49  ASN49      -0.0877
     65  N         47.1090    2.9690   -3.6770 N.3    55  ARG55      -0.1245
     66  CA        48.1020    1.9820   -4.0320 C.3    55  ARG55       0.1563
     67  C         47.4690    0.9570   -4.9240 C.2    55  ARG55       0.2260
     68  O         48.0570    0.6280   -5.9590 O.2    55  ARG55      -0.2867
     69  CB        48.6290    1.2440   -2.8000 C.3    55  ARG55       0.0307
     70  CG        49.5860    2.1030   -1.9560 C.3    55  ARG55       0.0489
     71  CD        49.9210    1.3680   -0.6420 C.3    55  ARG55       0.2205
     72  NE        50.9360    0.3080   -0.8120 N.pl3  55  ARG55      -0.0865
     73  CZ        51.0820   -0.6970    0.0370 C.cat  55  ARG55       0.5346
     74  NH1       50.2520   -0.8040    1.1020 N.pl3  55  ARG55       0.1354
     75  NH2       52.0440   -1.5850   -0.1600 N.pl3  55  ARG55       0.1354
     76  N         48.5920    0.2880   -8.8690 N.3    59  ARG59      -0.1245
     77  CA        49.0190   -0.9820   -9.4310 C.3    59  ARG59       0.1563
     78  C         48.1760   -1.3870  -10.6500 C.2    59  ARG59       0.2260
     79  O         48.7290   -1.8640  -11.6330 O.2    59  ARG59      -0.2867
     80  CB        49.0520   -2.0840   -8.3640 C.3    59  ARG59       0.0307
     81  CG        49.9740   -1.6560   -7.1900 C.3    59  ARG59       0.0489
     82  CD        50.2650   -2.7950   -6.2040 C.3    59  ARG59       0.2205
     83  NE        49.0510   -3.1800   -5.5090 N.pl3  59  ARG59      -0.0865
     84  CZ        48.8010   -2.8840   -4.2320 C.cat  59  ARG59       0.5346
     85  NH1       47.6930   -3.2810   -3.6660 N.pl3  59  ARG59       0.1354
     86  NH2       49.6930   -2.2350   -3.4990 N.pl3  59  ARG59       0.1354
     87  N         58.0660    2.7830   12.6260 N.3   119  LYS119     -0.1245
     88  CA        57.6550    1.7870   11.6250 C.3   119  LYS119      0.1561
     89  C         56.6880    2.3940   10.6080 C.2   119  LYS119      0.2260
     90  O         56.8620    2.2740    9.3830 O.2   119  LYS119     -0.2867
     91  CB        56.9620    0.6100   12.2840 C.3   119  LYS119      0.0271
     92  CG        56.2700   -0.3820   11.2540 C.3   119  LYS119      0.0035
     93  CD        55.3840   -1.3740   12.0670 C.3   119  LYS119      0.0206
     94  CE        54.5030   -2.2020   11.1720 C.3   119  LYS119      0.1093
     95  NZ        53.4880   -1.1780   10.7500 N.3   119  LYS119     -0.1314
     96  N         58.1360    3.9800    2.3240 N.3   126  ARG126     -0.1231
     97  CA        58.0510    2.7980    1.4230 C.3   126  ARG126      0.1694
     98  C         56.9320    2.9720    0.3430 C.2   126  ARG126      0.2592
     99  O         57.1420    2.6320   -0.8060 O.2   126  ARG126     -0.2718
    100  CB        57.8670    1.5010    2.2090 C.3   126  ARG126      0.0321
    101  CG        57.6230    0.2620    1.3040 C.3   126  ARG126      0.0489
    102  CD        57.9060   -1.0470    2.0240 C.3   126  ARG126      0.2205
    103  NE        57.0700   -1.1300    3.1990 N.pl3 126  ARG126     -0.0865
    104  CZ        55.8120   -1.6340    3.2080 C.cat 126  ARG126      0.5346
    105  NH1       55.2290   -2.1160    2.0870 N.pl3 126  ARG126      0.1354
    106  NH2       55.1290   -1.6510    4.3460 N.pl3 126  ARG126      0.1354
    107  N         55.7620    3.4710    0.7260 N.am  127  TYR127     -0.1976
    108  CA        54.6920    3.6700   -0.2410 C.3   127  TYR127      0.1639
    109  C         55.1400    4.7770   -1.2180 C.2   127  TYR127      0.2290
    110  O         54.8260    4.7150   -2.3800 O.2   127  TYR127     -0.2864
    111  CB        53.3630    4.0420    0.4030 C.3   127  TYR127      0.0560
    112  CG        52.9360    3.1040    1.4940 C.ar  127  TYR127     -0.0198
    113  CD1       53.2960    1.7670    1.4390 C.ar  127  TYR127     -0.0009
    114  CD2       52.1530    3.5560    2.5950 C.ar  127  TYR127     -0.0009
    115  CE1       52.9270    0.9080    2.4090 C.ar  127  TYR127      0.0417
    116  CE2       51.7580    2.6760    3.6280 C.ar  127  TYR127      0.0417
    117  CZ        52.1650    1.3740    3.5150 C.ar  127  TYR127      0.1957
    118  OH        51.8410    0.4570    4.4290 O.3   127  TYR127     -0.2866
    119  N         57.5900    2.9700   -3.5680 N.3   130  GLU130     -0.1245
    120  CA        56.9310    2.0810   -4.5820 C.3   130  GLU130      0.1567
    121  C         56.7120    2.8040   -5.8940 C.2   130  GLU130      0.2260
    122  O         56.6790    2.1770   -6.9420 O.2   130  GLU130     -0.2867
    123  CB        55.5630    1.5400   -4.1090 C.3   130  GLU130      0.0388
    124  CG        55.6720    0.7270   -2.8420 C.3   130  GLU130      0.1160
    125  CD        54.3340    0.1750   -2.3030 C.2   130  GLU130      0.3649
    126  OE1       53.2460    0.8340   -2.4450 O.co2 130  GLU130     -0.2457
    127  OE2       54.3910   -0.9400   -1.7190 O.co2 130  GLU130     -0.2457
    128  N         53.3590   -8.0810   18.9230 N.3   164  PRO164     -0.2116
    129  CA        52.6900   -7.8140   17.6080 C.3   164  PRO164      0.1372
    130  C         53.3780   -6.6940   16.8760 C.2   164  PRO164      0.2244
    131  O         53.5470   -6.7300   15.6530 O.2   164  PRO164     -0.2868
    132  CB        51.3450   -7.2640   18.0070 C.3   164  PRO164      0.0268
    133  CG        51.0610   -7.8440   19.4320 C.3   164  PRO164      0.0207
    134  CD        52.4030   -8.1870   20.0340 C.3   164  PRO164      0.0892
    135  N         55.3800   -7.1280   13.5510 N.3   168  GLY168     -0.1225
    136  CA        54.8870   -6.3720   12.3990 C.3   168  GLY168      0.1811
    137  C         56.0080   -5.5500   11.7660 C.2   168  GLY168      0.2280
    138  O         56.1110   -5.4800   10.5460 O.2   168  GLY168     -0.2866
    139  N         58.1020   -7.8240    9.8700 N.3   171  LEU171     -0.1231
    140  CA        57.3760   -8.1970    8.6370 C.3   171  LEU171      0.1693
    141  C         57.5600   -7.0790    7.5900 C.2   171  LEU171      0.2592
    142  O         58.0510   -7.3730    6.4490 O.2   171  LEU171     -0.2718
    143  CB        55.9010   -8.3970    8.9390 C.3   171  LEU171      0.0284
    144  CG        55.1330   -8.7410    7.6720 C.3   171  LEU171      0.0019
    145  CD1       55.5060  -10.1870    7.2180 C.3   171  LEU171      0.0001
    146  CD2       53.6600   -8.6650    8.0250 C.3   171  LEU171      0.0001
    147  N         57.2520   -5.8220    7.9800 N.am  172  ASN172     -0.1974
    148  CA        57.3370   -4.7210    7.0120 C.3   172  ASN172      0.1688
    149  C         58.7420   -4.3890    6.5700 C.2   172  ASN172      0.2292
    150  O         58.9750   -4.0530    5.4080 O.2   172  ASN172     -0.2864
    151  CB        56.6190   -3.4130    7.4560 C.3   172  ASN172      0.1181
    152  CG        55.0940   -3.5690    7.5360 C.2   172  ASN172      0.2629
    153  OD1       54.5630   -4.6940    7.5220 O.2   172  ASN172     -0.2716
    154  ND2       54.3850   -2.4410    7.6600 N.am  172  ASN172     -0.0877
    155  N         59.6450   -6.8190    4.1010 N.3   175  VAL175     -0.1245
    156  CA        59.0040   -6.5360    2.8130 C.3   175  VAL175      0.1561
    157  C         59.7430   -5.3850    2.1600 C.2   175  VAL175      0.2260
    158  O         59.9350   -5.3810    0.9970 O.2   175  VAL175     -0.2867
    159  CB        57.4750   -6.2140    2.9740 C.3   175  VAL175      0.0252
    160  CG1       56.8490   -5.6110    1.6830 C.3   175  VAL175      0.0019
    161  CG2       56.7050   -7.4560    3.4480 C.3   175  VAL175      0.0019
    162  N         62.9050   -6.8870    0.3300 N.3   178  TYR178     -0.1227
    163  CA        62.5920   -7.7220   -0.8110 C.3   178  TYR178      0.1736
    164  C         62.0410   -6.8440   -1.9320 C.2   178  TYR178      0.2595
    165  O         62.4000   -6.9990   -3.0780 O.2   178  TYR178     -0.2718
    166  CB        61.5180   -8.7860   -0.4430 C.3   178  TYR178      0.0548
    167  CG        61.2080   -9.6810   -1.6010 C.ar  178  TYR178     -0.0200
    168  CD1       62.0120  -10.7830   -1.8740 C.ar  178  TYR178     -0.0009
    169  CD2       60.1700   -9.3710   -2.4960 C.ar  178  TYR178     -0.0009
    170  CE1       61.7850  -11.5870   -3.0160 C.ar  178  TYR178      0.0417
    171  CE2       59.9230  -10.1350   -3.5870 C.ar  178  TYR178      0.0417
    172  CZ        60.7330  -11.2460   -3.8470 C.ar  178  TYR178      0.1957
    173  OH        60.4890  -12.0370   -4.9440 O.3   178  TYR178     -0.2866
    174  N         61.1440   -5.9350   -1.5930 N.am  179  GLU179     -0.1979
    175  CA        60.3600   -5.2820   -2.6160 C.3   179  GLU179      0.1602
    176  C         60.9560   -3.9810   -3.0660 C.2   179  GLU179      0.2287
    177  O         60.8220   -3.6280   -4.2250 O.2   179  GLU179     -0.2864
    178  CB        58.9240   -5.0190   -2.1220 C.3   179  GLU179      0.0415
    179  CG        58.1060   -6.3170   -1.9130 C.3   179  GLU179      0.1163
    180  CD        57.1030   -6.6030   -3.0610 C.2   179  GLU179      0.3649
    181  OE1       57.4780   -6.4700   -4.2690 O.co2 179  GLU179     -0.2457
    182  OE2       55.9170   -6.9060   -2.7430 O.co2 179  GLU179     -0.2457
    183  N         47.0160  -11.3420   17.1120 N.3   212  ASP212     -0.1239
    184  CA        47.7530  -10.5510   16.1930 C.3   212  ASP212      0.1674
    185  C         49.1470  -11.1070   16.0200 C.2   212  ASP212      0.2266
    186  O         49.6540  -11.1300   14.9380 O.2   212  ASP212     -0.2867
    187  CB        47.7850   -9.0790   16.6100 C.3   212  ASP212      0.1410
    188  CG        46.3780   -8.4840   16.8330 C.2   212  ASP212      0.3668
    189  OD1       45.4420   -8.6690   16.0140 O.co2 212  ASP212     -0.2456
    190  OD2       46.2020   -7.7680   17.8420 O.co2 212  ASP212     -0.2456
    191  N         48.9250  -14.2460   14.0370 N.3   215  LEU215     -0.1231
    192  CA        48.6470  -13.9570   12.6240 C.3   215  LEU215      0.1693
    193  C         49.9210  -13.4310   11.9440 C.2   215  LEU215      0.2591
    194  O         50.2680  -13.8690   10.8420 O.2   215  LEU215     -0.2718
    195  CB        47.4080  -13.0340   12.4240 C.3   215  LEU215      0.0284
    196  CG        47.3280  -12.3860   11.0430 C.3   215  LEU215      0.0019
    197  CD1       47.2680  -13.5950   10.0050 C.3   215  LEU215      0.0001
    198  CD2       46.0660  -11.6310   10.9100 C.3   215  LEU215      0.0001
    199  N         50.6160  -12.4820   12.5510 N.am  216  ILE216     -0.1980
    200  CA        51.8270  -11.9600   11.8950 C.3   216  ILE216      0.1595
    201  C         52.9210  -13.0630   11.7030 C.2   216  ILE216      0.2287
    202  O         53.5470  -13.1440   10.6440 O.2   216  ILE216     -0.2864
    203  CB        52.3670  -10.6740   12.6240 C.3   216  ILE216      0.0276
    204  CG1       51.3140   -9.5510   12.5410 C.3   216  ILE216      0.0022
    205  CG2       53.7720  -10.2330   12.0890 C.3   216  ILE216      0.0022
    206  CD1       51.6550   -8.3860   13.4690 C.3   216  ILE216      0.0001
    207  N         52.1040  -14.6740    8.5890 N.3   219  LEU219     -0.1245
    208  CA        52.4670  -13.8310    7.4260 C.3   219  LEU219      0.1561
    209  C         53.9960  -13.8140    7.2200 C.2   219  LEU219      0.2260
    210  O         54.4580  -13.8460    6.0650 O.2   219  LEU219     -0.2867
    211  CB        51.9690  -12.4020    7.5740 C.3   219  LEU219      0.0270
    212  CG        50.4500  -12.3340    7.6980 C.3   219  LEU219      0.0019
    213  CD1       49.9530  -10.8970    7.9010 C.3   219  LEU219      0.0001
    214  CD2       49.7720  -12.9540    6.4270 C.3   219  LEU219      0.0001
    215  N         54.6530  -17.0780    5.4420 N.3   222  ASP222     -0.1225
    216  CA        54.1670  -17.0640    4.0540 C.3   222  ASP222      0.1805
    217  C         55.0240  -16.2390    3.0820 C.2   222  ASP222      0.2597
    218  O         55.1430  -16.6110    1.9510 O.2   222  ASP222     -0.2718
    219  CB        52.7380  -16.5270    3.9160 C.3   222  ASP222      0.1424
    220  CG        51.7080  -17.3920    4.6190 C.2   222  ASP222      0.3668
    221  OD1       51.9400  -18.6420    4.8970 O.co2 222  ASP222     -0.2456
    222  OD2       50.6480  -16.7930    4.9090 O.co2 222  ASP222     -0.2456
    223  N         55.5200  -15.0750    3.4830 N.am  223  ASN223     -0.1974
    224  CA        56.4640  -14.3480    2.6560 C.3   223  ASN223      0.1688
    225  C         57.6930  -15.2110    2.3920 C.2   223  ASN223      0.2292
    226  O         58.0570  -15.4570    1.2500 O.2   223  ASN223     -0.2864
    227  CB        56.8430  -13.0350    3.3280 C.3   223  ASN223      0.1181
    228  CG        55.7560  -11.9810    3.1470 C.2   223  ASN223      0.2629
    229  OD1       54.8750  -12.1440    2.3340 O.2   223  ASN223     -0.2716
    230  ND2       55.8260  -10.9230    3.8820 N.am  223  ASN223     -0.0877
    231  N         57.1100  -17.7230   -0.1250 N.3   226  LEU226     -0.1231
    232  CA        56.9270  -17.0770   -1.4270 C.3   226  LEU226      0.1693
    233  C         58.2630  -16.6000   -2.0070 C.2   226  LEU226      0.2592
    234  O         58.5390  -16.7730   -3.1850 O.2   226  LEU226     -0.2718
    235  CB        56.0230  -15.8790   -1.2680 C.3   226  LEU226      0.0284
    236  CG        55.9000  -14.9500   -2.4720 C.3   226  LEU226      0.0019
    237  CD1       55.0470  -15.5760   -3.6290 C.3   226  LEU226      0.0001
    238  CD2       55.2540  -13.6470   -1.9550 C.3   226  LEU226      0.0001
    239  N         59.1050  -16.0260   -1.1460 N.am  227  TRP227     -0.1976
    240  CA        60.3680  -15.4630   -1.5860 C.3   227  TRP227      0.1640
    241  C         61.3830  -16.5510   -1.9530 C.2   227  TRP227      0.2290
    242  O         62.2590  -16.3360   -2.7740 O.2   227  TRP227     -0.2864
    243  CB        60.9320  -14.5660   -0.5170 C.3   227  TRP227      0.0576
    244  CG        60.1000  -13.4060   -0.2490 C.ar  227  TRP227      0.0006
    245  CD1       59.2080  -12.8240   -1.1040 C.ar  227  TRP227      0.0946
    246  CD2       60.1190  -12.5930    0.9320 C.ar  227  TRP227      0.0152
    247  NE1       58.6500  -11.7220   -0.5190 N.ar  227  TRP227     -0.2442
    248  CE2       59.1960  -11.5630    0.7370 C.ar  227  TRP227      0.0810
    249  CE3       60.8160  -12.6500    2.1370 C.ar  227  TRP227      0.0012
    250  CZ2       58.9380  -10.6070    1.7140 C.ar  227  TRP227      0.0191
    251  CZ3       60.5460  -11.6960    3.1230 C.ar  227  TRP227      0.0001
    252  CH2       59.6450  -10.6860    2.8880 C.ar  227  TRP227      0.0015
@<TRIPOS>BOND
     1    79    78    2
     2    78    77    1
     3    77    76    1
     4    77    80    1
     5    80    81    1
     6    81    82    1
     7   122   121    2
     8    82    83    1
     9    68    67    2
    10   121   120    1
    11    83    84    2
    12   173   172    1
    13    67    66    1
    14   120   123    1
    15   120   119    1
    16   181   180   ar
    17    84    85    1
    18    84    86    1
    19   177   176    2
    20   123   124    1
    21    66    65    1
    22    66    69    1
    23   172   171   ar
    24   172   170   ar
    25   237   236    1
    26   171   169   ar
    27   234   233    2
    28   165   164    2
    29   176   175    1
    30   180   182   ar
    31   180   179    1
    32   170   168   ar
    33   124   125    1
    34    69    70    1
    35   242   241    2
    36   175   178    1
    37   175   174    1
    38   169   167   ar
    39   236   238    1
    40   236   235    1
    41   126   125   ar
    42   110   109    2
    43   125   127   ar
    44   178   179    1
    45   233   232    1
    46   233   239   am
    47    70    71    1
    48   241   240    1
    49   164   174   am
    50   164   163    1
    51   168   167   ar
    52   167   166    1
    53   240   239    1
    54   240   243    1
    55   232   235    1
    56   232   231    1
    57   109   108    1
    58   245   247   ar
    59   245   244   ar
    60    72    71    1
    61    72    73    2
    62   163   166    1
    63   163   162    1
    64    99    98    2
    65   247   248   ar
    66   243   244    1
    67   244   246   ar
    68   108   111    1
    69   108   107    1
    70    75    73    1
    71    73    74    1
    72    98   107   am
    73    98    97    1
    74   111   112    1
    75   248   246   ar
    76   248   250   ar
    77   246   249   ar
    78   158   157    2
    79   226   225    2
    80   101   102    1
    81   101   100    1
    82    97   100    1
    83    97    96    1
    84   113   112   ar
    85   113   115   ar
    86   112   114   ar
    87   160   159    1
    88   250   252   ar
    89    60    59    2
    90   218   217    2
    91   102   103    1
    92   105   104    1
    93   249   251   ar
    94   157   156    1
    95   229   228    2
    96   225   224    1
    97   115   117   ar
    98   114   116   ar
    99   224   227    1
   100   224   223    1
   101   156   159    1
   102   156   155    1
   103   252   251   ar
   104   159   161    1
   105    59    58    1
   106   217   223   am
   107   217   216    1
   108   228   227    1
   109   228   230   am
   110   103   104    2
   111   104   106    1
   112   117   116   ar
   113   117   118    1
   114    51    50    2
   115   219   216    1
   116   219   220    1
   117   216   215    1
   118    58    61    1
   119    58    57    1
   120   220   221   ar
   121   220   222   ar
   122    50    57   am
   123    50    49    1
   124    61    62    1
   125   150   149    2
   126    62    64   am
   127    62    63    2
   128    49    48    1
   129    49    52    1
   130    53    52    1
   131    53    54    1
   132   210   209    2
   133   214   212    1
   134   142   141    2
   135   149   148    1
   136    54    55    1
   137   148   151    1
   138   148   147    1
   139   145   144    1
   140   209   208    1
   141   208   211    1
   142   208   207    1
   143    56    55    1
   144   151   152    1
   145   153   152    2
   146   152   154   am
   147   211   212    1
   148   141   147   am
   149   141   140    1
   150   144   146    1
   151   144   143    1
   152   212   213    1
   153    44    43    2
   154   140   143    1
   155   140   139    1
   156     4     3    2
   157    43    42    1
   158    90    89    2
   159    38    37    2
   160   197   196    1
   161     3     2    1
   162    42    41    1
   163    42    45    1
   164    46    45    1
   165     2     1    1
   166     2     5    1
   167   138   137    2
   168    37    41   am
   169    37    36    1
   170    89    88    1
   171   202   201    2
   172    95    94    1
   173   194   193    2
   174   198   196    1
   175   196   195    1
   176    45    47    1
   177     6     5    1
   178     6     7    1
   179    94    93    1
   180    92    93    1
   181    92    91    1
   182    36    35    1
   183    36    39    1
   184    88    91    1
   185    88    87    1
   186    40    39    1
   187   201   200    1
   188   137   136    1
   189   200   199    1
   190   200   203    1
   191   193   199   am
   192   193   192    1
   193   205   203    1
   194     9     7   ar
   195    30    29    2
   196     7     8   ar
   197   136   135    1
   198   195   192    1
   199   204   203    1
   200   204   206    1
   201   192   191    1
   202    29    28    1
   203    22    21    2
   204    28    31    1
   205    28    27    1
   206   186   185    2
   207    21    27   am
   208    21    20    1
   209    31    32    1
   210    34    32    1
   211   131   130    2
   212   189   188   ar
   213   185   184    1
   214    20    23    1
   215    20    19    1
   216   184   187    1
   217   184   183    1
   218    32    33    1
   219   187   188    1
   220   188   190   ar
   221    23    24    1
   222   130   129    1
   223    25    24    2
   224   129   132    1
   225   129   128    1
   226    24    26   am
   227   132   133    1
   228    13    12    2
   229   128   134    1
   230   133   134    1
   231    12    11    1
   232    15    16    1
   233    15    14    1
   234    11    10    1
   235    11    14    1
   236    18    16   ar
   237    16    17   ar
