@<TRIPOS>MOLECULE
tmp/3cueW00.pdb
 211 201 0 0 0
SMALL
GASTEIGER

@<TRIPOS>ATOM
      1  N         11.2070  -69.4090  107.7560 N.3    25  PHE25      -0.1241
      2  CA        11.0930  -70.5160  108.7150 C.3    25  PHE25       0.1605
      3  C          9.8180  -70.3550  109.5300 C.2    25  PHE25       0.2264
      4  O          9.1450  -71.3240  109.8130 O.2    25  PHE25      -0.2867
      5  CB        12.3000  -70.5730  109.6710 C.3    25  PHE25       0.0534
      6  CG        12.2520  -71.7280  110.6590 C.ar   25  PHE25      -0.0203
      7  CD1       13.0250  -72.8800  110.4450 C.ar   25  PHE25      -0.0042
      8  CD2       11.4270  -71.6650  111.8110 C.ar   25  PHE25      -0.0042
      9  CE1       12.9840  -73.9450  111.3550 C.ar   25  PHE25      -0.0003
     10  CE2       11.3780  -72.7340  112.7310 C.ar   25  PHE25      -0.0003
     11  CZ        12.1610  -73.8720  112.4960 C.ar   25  PHE25      -0.0000
     12  N         14.8220  -84.1190  115.0280 N.3    58  ILE58      -0.1245
     13  CA        15.6180  -83.0340  114.4930 C.3    58  ILE58       0.1561
     14  C         16.7310  -82.7470  115.4930 C.2    58  ILE58       0.2260
     15  O         17.8960  -82.5560  115.1160 O.2    58  ILE58      -0.2867
     16  CB        14.7520  -81.7810  114.3130 C.3    58  ILE58       0.0252
     17  CG1       13.8250  -81.6470  115.5180 C.3    58  ILE58       0.0019
     18  CG2       13.9660  -81.8550  113.0070 C.3    58  ILE58       0.0019
     19  CD1       12.7170  -80.6510  115.3340 C.3    58  ILE58       0.0001
     20  N         20.7970  -82.1780  114.8740 N.3    62  LEU62      -0.1231
     21  CA        21.3270  -80.8600  115.2130 C.3    62  LEU62       0.1693
     22  C         22.4040  -80.8100  116.2920 C.2    62  LEU62       0.2591
     23  O         23.3430  -80.0040  116.2400 O.2    62  LEU62      -0.2718
     24  CB        20.1500  -79.9770  115.6050 C.3    62  LEU62       0.0284
     25  CG        20.4100  -78.6230  116.2460 C.3    62  LEU62       0.0019
     26  CD1       19.1700  -77.7630  116.0240 C.3    62  LEU62       0.0001
     27  CD2       20.7530  -78.7740  117.7500 C.3    62  LEU62       0.0001
     28  N         22.2500  -81.6770  117.2820 N.am   63  ILE63      -0.1980
     29  CA        23.1970  -81.7580  118.3740 C.3    63  ILE63       0.1595
     30  C         24.4930  -82.0980  117.6850 C.2    63  ILE63       0.2287
     31  O         25.5370  -81.6370  118.0640 O.2    63  ILE63      -0.2864
     32  CB        22.8180  -82.8700  119.3720 C.3    63  ILE63       0.0276
     33  CG1       23.8400  -82.9150  120.4810 C.3    63  ILE63       0.0022
     34  CG2       22.8330  -84.2000  118.7060 C.3    63  ILE63       0.0022
     35  CD1       24.0870  -81.5770  121.0770 C.3    63  ILE63       0.0001
     36  N         25.8340  -78.8710  116.0820 N.3    66  PHE66      -0.1227
     37  CA        26.2180  -77.9350  117.1350 C.3    66  PHE66       0.1736
     38  C         27.5840  -78.2300  117.7380 C.2    66  PHE66       0.2595
     39  O         28.3490  -77.3460  118.0690 O.2    66  PHE66      -0.2718
     40  CB        25.1880  -77.9410  118.2490 C.3    66  PHE66       0.0547
     41  CG        25.5530  -77.0480  119.3840 C.ar   66  PHE66      -0.0202
     42  CD1       26.6280  -77.3530  120.2010 C.ar   66  PHE66      -0.0042
     43  CD2       24.8570  -75.8630  119.5990 C.ar   66  PHE66      -0.0042
     44  CE1       27.0050  -76.4960  121.2060 C.ar   66  PHE66      -0.0003
     45  CE2       25.2280  -74.9910  120.6080 C.ar   66  PHE66      -0.0003
     46  CZ        26.3080  -75.3080  121.4160 C.ar   66  PHE66      -0.0000
     47  N         27.8460  -79.4960  117.9520 N.am   67  LEU67      -0.1980
     48  CA        29.1190  -79.9330  118.4710 C.3    67  LEU67       0.1596
     49  C         30.1870  -79.7300  117.3980 C.2    67  LEU67       0.2287
     50  O         31.3150  -79.4010  117.7100 O.2    67  LEU67      -0.2864
     51  CB        29.0590  -81.4110  118.8520 C.3    67  LEU67       0.0297
     52  CG        28.7330  -81.8490  120.2780 C.3    67  LEU67       0.0022
     53  CD1       29.9030  -81.5230  121.1550 C.3    67  LEU67       0.0001
     54  CD2       27.4760  -81.1880  120.7640 C.3    67  LEU67       0.0001
     55  N         32.4250  -78.1360  121.9310 N.3    72  LEU72      -0.1231
     56  CA        32.4610  -78.1690  123.3980 C.3    72  LEU72       0.1678
     57  C         32.4560  -79.6160  123.9580 C.2    72  LEU72       0.2434
     58  O         31.9250  -80.5290  123.3320 O.2    72  LEU72      -0.2733
     59  CB        31.2620  -77.4200  123.9610 C.3    72  LEU72       0.0284
     60  CG        30.9100  -76.1030  123.2890 C.3    72  LEU72       0.0019
     61  CD1       29.9420  -75.3280  124.1600 C.3    72  LEU72       0.0001
     62  CD2       32.1400  -75.3090  123.0960 C.3    72  LEU72       0.0001
     63  N         33.0700  -79.8470  125.1310 N.am   73  PRO73      -0.2718
     64  CA        33.0920  -81.1960  125.7160 C.3    73  PRO73       0.1535
     65  C         31.7870  -81.5050  126.4410 C.2    73  PRO73       0.2598
     66  O         31.0450  -80.5940  126.8030 O.2    73  PRO73      -0.2715
     67  CB        34.2850  -81.1380  126.6560 C.3    73  PRO73       0.0310
     68  CG        35.1800  -80.1490  125.9860 C.3    73  PRO73       0.0237
     69  CD        34.2030  -79.0640  125.6360 C.3    73  PRO73       0.0939
     70  N         31.5160  -82.7790  126.6860 N.am   74  ARG74      -0.1964
     71  CA        30.2500  -83.1120  127.3060 C.3    74  ARG74       0.1729
     72  C         29.9090  -82.7850  128.7600 C.2    74  ARG74       0.2616
     73  O         29.5540  -83.6710  129.5220 O.2    74  ARG74      -0.2715
     74  CB        29.8480  -84.5850  127.0040 C.3    74  ARG74       0.0348
     75  CG        30.9630  -85.6100  126.6380 C.3    74  ARG74       0.0492
     76  CD        30.3950  -87.0120  126.1590 C.3    74  ARG74       0.2205
     77  NE        29.6070  -87.6940  127.1870 N.pl3  74  ARG74      -0.0865
     78  CZ        30.1150  -88.2050  128.3110 C.cat  74  ARG74       0.5346
     79  NH1       31.4190  -88.1300  128.5560 N.pl3  74  ARG74       0.1354
     80  NH2       29.3170  -88.7590  129.2200 N.pl3  74  ARG74       0.1354
     81  N         30.0000  -81.5050  129.1170 N.am   75  CYS75      -0.1968
     82  CA        29.5800  -80.9440  130.4280 C.3    75  CYS75       0.1712
     83  C         28.8180  -81.9650  131.3000 C.2    75  CYS75       0.2296
     84  O         27.8210  -82.5330  130.8630 O.2    75  CYS75      -0.2864
     85  CB        28.6450  -79.7940  130.0860 C.3    75  CYS75       0.0983
     86  SG        27.8110  -80.4560  128.6980 S.3    75  CYS75      -0.0798
     87  N         25.6870  -76.9690  131.5160 N.3    81  THR81      -0.1218
     88  CA        24.8010  -77.2500  130.4140 C.3    81  THR81       0.1862
     89  C         23.8090  -76.0920  130.2180 C.2    81  THR81       0.2287
     90  O         23.6210  -75.6050  129.1000 O.2    81  THR81      -0.2866
     91  CB        24.0840  -78.6060  130.6820 C.3    81  THR81       0.1770
     92  OG1       25.0580  -79.6620  130.7420 O.3    81  THR81      -0.2211
     93  CG2       23.1020  -78.9020  129.5990 C.3    81  THR81       0.0375
     94  N         25.7970  -73.3950  128.7290 N.3    84  VAL84      -0.1231
     95  CA        26.1880  -73.6060  127.3460 C.3    84  VAL84       0.1692
     96  C         25.0110  -73.4940  126.4380 C.2    84  VAL84       0.2591
     97  O         25.0950  -72.9910  125.3110 O.2    84  VAL84      -0.2718
     98  CB        26.7640  -74.9880  127.1050 C.3    84  VAL84       0.0266
     99  CG1       27.0990  -75.1560  125.6190 C.3    84  VAL84       0.0020
    100  CG2       27.9830  -75.1840  127.9740 C.3    84  VAL84       0.0020
    101  N         23.8920  -73.9850  126.9260 N.am   85  LEU85      -0.1980
    102  CA        22.7650  -73.9610  126.0620 C.3    85  LEU85       0.1596
    103  C         22.2590  -72.5670  125.8320 C.2    85  LEU85       0.2287
    104  O         22.0140  -72.1850  124.6810 O.2    85  LEU85      -0.2864
    105  CB        21.6850  -74.7890  126.7040 C.3    85  LEU85       0.0297
    106  CG        20.6680  -75.3540  125.7560 C.3    85  LEU85       0.0022
    107  CD1       20.8850  -76.8760  125.5780 C.3    85  LEU85       0.0001
    108  CD2       19.3030  -74.9860  126.3390 C.3    85  LEU85       0.0001
    109  N         23.6890  -72.1350  122.3500 N.3    89  ALA89      -0.1231
    110  CA        22.7410  -72.7760  121.4500 C.3    89  ALA89       0.1694
    111  C         21.7600  -71.9300  120.7320 C.2    89  ALA89       0.2592
    112  O         21.5540  -72.0320  119.5310 O.2    89  ALA89      -0.2718
    113  CB        22.0120  -73.8560  122.2000 C.3    89  ALA89       0.0304
    114  N         21.1740  -71.0630  121.5290 N.am   90  PHE90      -0.1976
    115  CA        20.2130  -70.1540  121.0440 C.3    90  PHE90       0.1639
    116  C         20.7990  -69.0950  120.1780 C.2    90  PHE90       0.2290
    117  O         20.2920  -68.7980  119.1070 O.2    90  PHE90      -0.2864
    118  CB        19.3680  -69.6500  122.1990 C.3    90  PHE90       0.0560
    119  CG        18.3400  -70.6690  122.6570 C.ar   90  PHE90      -0.0200
    120  CD1       17.1370  -70.2740  123.2640 C.ar   90  PHE90      -0.0042
    121  CD2       18.5430  -72.0340  122.4100 C.ar   90  PHE90      -0.0042
    122  CE1       16.1530  -71.2170  123.6110 C.ar   90  PHE90      -0.0003
    123  CE2       17.5600  -72.9880  122.7530 C.ar   90  PHE90      -0.0003
    124  CZ        16.3660  -72.5710  123.3520 C.ar   90  PHE90      -0.0000
    125  N         21.6080  -70.6710  116.8790 N.3    93  PHE93      -0.1227
    126  CA        20.4960  -71.0940  116.0420 C.3    93  PHE93       0.1736
    127  C         19.3570  -70.1070  115.8690 C.2    93  PHE93       0.2595
    128  O         18.8110  -69.9740  114.7820 O.2    93  PHE93      -0.2718
    129  CB        19.9770  -72.4430  116.5590 C.3    93  PHE93       0.0547
    130  CG        20.9290  -73.5760  116.3070 C.ar   93  PHE93      -0.0202
    131  CD1       21.1970  -74.5040  117.2870 C.ar   93  PHE93      -0.0042
    132  CD2       21.5680  -73.6910  115.0770 C.ar   93  PHE93      -0.0042
    133  CE1       22.0890  -75.5290  117.0400 C.ar   93  PHE93      -0.0003
    134  CE2       22.4580  -74.7100  114.8270 C.ar   93  PHE93      -0.0003
    135  CZ        22.7220  -75.6320  115.8030 C.ar   93  PHE93      -0.0000
    136  N         19.0000  -69.4120  116.9320 N.am   94  LEU94      -0.1980
    137  CA        17.9170  -68.4660  116.8340 C.3    94  LEU94       0.1596
    138  C         18.3470  -67.0770  117.2540 C.2    94  LEU94       0.2287
    139  O         17.5620  -66.3220  117.8080 O.2    94  LEU94      -0.2864
    140  CB        16.7260  -68.9020  117.6860 C.3    94  LEU94       0.0297
    141  CG        16.1280  -70.3010  117.5430 C.3    94  LEU94       0.0022
    142  CD1       14.8870  -70.3550  118.4150 C.3    94  LEU94       0.0001
    143  CD2       15.7930  -70.6180  116.1090 C.3    94  LEU94       0.0001
    144  N         10.9360  -67.6450  116.8900 N.3   119  LEU119     -0.1245
    145  CA        10.0360  -68.6890  116.4200 C.3   119  LEU119      0.1561
    146  C          8.6350  -68.1380  116.2560 C.2   119  LEU119      0.2260
    147  O          8.2060  -67.8820  115.1390 O.2   119  LEU119     -0.2867
    148  CB        10.0370  -69.8570  117.4010 C.3   119  LEU119      0.0270
    149  CG         9.2290  -71.0960  117.0560 C.3   119  LEU119      0.0019
    150  CD1        9.5240  -72.1550  118.0790 C.3   119  LEU119      0.0001
    151  CD2        7.7530  -70.7820  117.0530 C.3   119  LEU119      0.0001
    152  N          7.8850  -77.9490  119.3910 N.3   138  ILE138     -0.1231
    153  CA         8.9310  -78.6060  118.6150 C.3   138  ILE138      0.1692
    154  C         10.2470  -78.1090  119.1610 C.2   138  ILE138      0.2591
    155  O         11.2380  -78.8500  119.2250 O.2   138  ILE138     -0.2718
    156  CB         8.9370  -78.1660  117.1440 C.3   138  ILE138      0.0266
    157  CG1       10.1270  -78.8070  116.4190 C.3   138  ILE138      0.0019
    158  CG2        9.0340  -76.6630  117.0650 C.3   138  ILE138      0.0020
    159  CD1       10.3310  -78.3310  115.0320 C.3   138  ILE138      0.0001
    160  N         10.2500  -76.8440  119.5450 N.am  139  LEU139     -0.1980
    161  CA        11.4520  -76.2080  120.0660 C.3   139  LEU139      0.1596
    162  C         11.9460  -76.9360  121.3210 C.2   139  LEU139      0.2287
    163  O         13.0990  -77.3680  121.4090 O.2   139  LEU139     -0.2864
    164  CB        11.0340  -74.7570  120.3380 C.3   139  LEU139      0.0297
    165  CG        11.6910  -73.5620  121.0090 C.3   139  LEU139      0.0022
    166  CD1       11.2980  -73.5790  122.4730 C.3   139  LEU139      0.0001
    167  CD2       13.1940  -73.5380  120.7390 C.3   139  LEU139      0.0001
    168  N         13.2260  -80.3820  120.6940 N.3   142  VAL142     -0.1231
    169  CA        14.5780  -80.4350  120.1330 C.3   142  VAL142      0.1692
    170  C         15.6080  -80.5110  121.2560 C.2   142  VAL142      0.2591
    171  O         16.6170  -81.2120  121.1650 O.2   142  VAL142     -0.2718
    172  CB        14.8710  -79.2110  119.2640 C.3   142  VAL142      0.0266
    173  CG1       16.1900  -79.4010  118.5620 C.3   142  VAL142      0.0020
    174  CG2       13.7810  -79.0260  118.2480 C.3   142  VAL142      0.0020
    175  N         15.3170  -79.8000  122.3340 N.am  143  LEU143     -0.1980
    176  CA        16.2000  -79.7920  123.4810 C.3   143  LEU143      0.1596
    177  C         16.3730  -81.1990  124.0780 C.2   143  LEU143      0.2287
    178  O         17.4950  -81.6730  124.2660 O.2   143  LEU143     -0.2864
    179  CB        15.5900  -78.8960  124.5620 C.3   143  LEU143      0.0297
    180  CG        15.3260  -77.4440  124.2150 C.3   143  LEU143      0.0022
    181  CD1       14.8590  -76.6900  125.4500 C.3   143  LEU143      0.0001
    182  CD2       16.6190  -76.8480  123.6670 C.3   143  LEU143      0.0001
    183  N         18.4490  -83.3000  121.9640 N.3   146  SER146     -0.1202
    184  CA        19.8230  -82.8010  121.9360 C.3   146  SER146      0.2020
    185  C         20.5830  -83.1960  123.1900 C.2   146  SER146      0.2618
    186  O         21.6980  -83.7020  123.1090 O.2   146  SER146     -0.2717
    187  CB        19.8450  -81.2790  121.8080 C.3   146  SER146      0.2103
    188  OG        19.0030  -80.8450  120.7680 O.3   146  SER146     -0.2182
    189  N         19.9620  -83.0150  124.3460 N.am  147  LEU147     -0.1979
    190  CA        20.6200  -83.3560  125.5920 C.3   147  LEU147      0.1596
    191  C         20.8780  -84.8630  125.6140 C.2   147  LEU147      0.2287
    192  O         21.9870  -85.3250  125.8850 O.2   147  LEU147     -0.2864
    193  CB        19.7270  -82.9400  126.7620 C.3   147  LEU147      0.0297
    194  CG        19.3920  -81.4570  126.7390 C.3   147  LEU147      0.0022
    195  CD1       18.2630  -81.1340  127.6880 C.3   147  LEU147      0.0001
    196  CD2       20.6410  -80.6880  127.0530 C.3   147  LEU147      0.0001
    197  N         23.8410  -86.3540  124.0320 N.3   150  VAL150     -0.1245
    198  CA        25.0790  -86.1080  124.7460 C.3   150  VAL150      0.1561
    199  C         24.9310  -86.5660  126.2070 C.2   150  VAL150      0.2260
    200  O         25.4910  -86.0090  127.1620 O.2   150  VAL150     -0.2867
    201  CB        25.4830  -84.6470  124.6340 C.3   150  VAL150      0.0252
    202  CG1       26.7010  -84.3650  125.4910 C.3   150  VAL150      0.0019
    203  CG2       25.8350  -84.3510  123.1860 C.3   150  VAL150      0.0019
    204  N         22.7800  -86.3420  128.6030 N.3   152  LEU152     -0.1245
    205  CA        21.9000  -85.8400  129.6420 C.3   152  LEU152      0.1561
    206  C         20.4680  -86.2870  129.3450 C.2   152  LEU152      0.2260
    207  O         19.8730  -85.9620  128.3110 O.2   152  LEU152     -0.2867
    208  CB        22.0120  -84.3230  129.7630 C.3   152  LEU152      0.0270
    209  CG        23.4710  -83.8740  129.6700 C.3   152  LEU152      0.0019
    210  CD1       23.5800  -82.3890  129.9600 C.3   152  LEU152      0.0001
    211  CD2       24.2960  -84.6580  130.6420 C.3   152  LEU152      0.0001
@<TRIPOS>BOND
     1     1     2    1
     2     2     3    1
     3     2     5    1
     4     3     4    2
     5     5     6    1
     6     7     6   ar
     7     7     9   ar
     8     6     8   ar
     9     9    11   ar
    10     8    10   ar
    11    11    10   ar
    12    18    16    1
    13    16    13    1
    14    16    17    1
    15    13    12    1
    16    13    14    1
    17   128   127    2
    18   134   132   ar
    19   134   135   ar
    20    20    21    1
    21   159   157    1
    22   132   130   ar
    23    15    14    2
    24   147   146    2
    25    21    24    1
    26    21    22    1
    27    19    17    1
    28    24    25    1
    29   135   133   ar
    30   127   126    1
    31   127   136   am
    32    26    25    1
    33   126   129    1
    34   126   125    1
    35    36    37    1
    36   143   141    1
    37    23    22    2
    38    25    27    1
    39   146   145    1
    40    22    28   am
    41   130   129    1
    42   130   131   ar
    43   157   156    1
    44   145   144    1
    45   145   148    1
    46   137   136    1
    47   137   138    1
    48   137   140    1
    49   133   131   ar
    50   151   149    1
    51   149   148    1
    52   149   150    1
    53   158   156    1
    54    37    38    1
    55    37    40    1
    56   156   153    1
    57   138   139    2
    58    28    29    1
    59    49    50    2
    60    49    48    1
    61   141   140    1
    62   141   142    1
    63    30    31    2
    64    30    29    1
    65    38    47   am
    66    38    39    2
    67    47    48    1
    68   174   172    1
    69    40    41    1
    70    29    32    1
    71    48    51    1
    72   173   172    1
    73   153   154    1
    74   153   152    1
    75    34    32    1
    76    51    52    1
    77   117   116    2
    78   154   155    2
    79   154   160   am
    80   172   169    1
    81    32    33    1
    82    41    43   ar
    83    41    42   ar
    84   112   111    2
    85   160   161    1
    86    43    45   ar
    87   161   164    1
    88   161   162    1
    89   169   168    1
    90   169   170    1
    91   116   115    1
    92    42    44   ar
    93    52    54    1
    94    52    53    1
    95   164   165    1
    96    33    35    1
    97    45    46   ar
    98   111   110    1
    99   111   114   am
   100   167   165    1
   101   188   187    1
   102   165   166    1
   103   115   114    1
   104   115   118    1
   105   171   170    2
   106    44    46   ar
   107   170   175   am
   108   162   163    2
   109   110   113    1
   110   110   109    1
   111   187   184    1
   112    55    56    1
   113   184   183    1
   114   184   185    1
   115   118   119    1
   116   175   176    1
   117   121   119   ar
   118   121   123   ar
   119   119   120   ar
   120   123   124   ar
   121    62    60    1
   122   186   185    2
   123   203   201    1
   124   185   189   am
   125   120   122   ar
   126    60    59    1
   127    60    61    1
   128    58    57    2
   129   124   122   ar
   130    56    57    1
   131    56    59    1
   132   176   177    1
   133   176   179    1
   134   182   180    1
   135    57    63   am
   136   197   198    1
   137   177   178    2
   138   180   179    1
   139   180   181    1
   140   189   190    1
   141   201   198    1
   142   201   202    1
   143   104   103    2
   144   198   199    1
   145    63    69    1
   146    63    64    1
   147    97    96    2
   148   107   106    1
   149   190   191    1
   150   190   193    1
   151   191   192    2
   152    99    98    1
   153    69    68    1
   154    64    65    1
   155    64    67    1
   156   106   108    1
   157   106   105    1
   158   103   102    1
   159    68    67    1
   160   102   105    1
   161   102   101    1
   162    76    75    1
   163    76    77    1
   164   199   200    2
   165    96   101   am
   166    96    95    1
   167    65    70   am
   168    65    66    2
   169    75    74    1
   170    70    71    1
   171   194   193    1
   172   194   196    1
   173   194   195    1
   174    74    71    1
   175    98    95    1
   176    98   100    1
   177    77    78    2
   178    71    72    1
   179    95    94    1
   180    78    79    1
   181    78    80    1
   182   207   206    2
   183   204   205    1
   184    86    85    1
   185    72    81   am
   186    72    73    2
   187    90    89    2
   188    81    82    1
   189   206   205    1
   190    93    91    1
   191   205   208    1
   192   209   208    1
   193   209   210    1
   194   209   211    1
   195    85    82    1
   196    89    88    1
   197    88    91    1
   198    88    87    1
   199    82    83    1
   200    91    92    1
   201    84    83    2
