@<TRIPOS>MOLECULE
tmp/3cufA00.pdb
 165 160 0 0 0
SMALL
GASTEIGER

@<TRIPOS>ATOM
      1  N         20.8720   62.8840   44.6780 N.3    43  GLU43      -0.1231
      2  CA        20.2470   62.6750   43.3890 C.3    43  GLU43       0.1699
      3  C         19.0760   63.6530   43.1890 C.2    43  GLU43       0.2592
      4  O         18.9060   64.1820   42.0840 O.2    43  GLU43      -0.2718
      5  CB        19.7350   61.2300   43.2650 C.3    43  GLU43       0.0402
      6  CG        19.2400   60.9030   41.8400 C.3    43  GLU43       0.1161
      7  CD        18.6270   59.5130   41.7210 C.2    43  GLU43       0.3649
      8  OE1       18.3840   58.8810   42.7800 O.co2  43  GLU43      -0.2457
      9  OE2       18.3610   59.0970   40.5620 O.co2  43  GLU43      -0.2457
     10  N         18.3160   63.8860   44.2640 N.am   44  ASN44      -0.1974
     11  CA        17.0830   64.7010   44.2230 C.3    44  ASN44       0.1688
     12  C         16.8750   65.6130   45.4280 C.2    44  ASN44       0.2292
     13  O         16.1820   66.6040   45.3150 O.2    44  ASN44      -0.2864
     14  CB        15.8650   63.7680   44.1200 C.3    44  ASN44       0.1181
     15  CG        15.7230   63.1900   42.7460 C.2    44  ASN44       0.2629
     16  OD1       15.6180   63.9270   41.7670 O.2    44  ASN44      -0.2716
     17  ND2       15.7320   61.8650   42.6470 N.am   44  ASN44      -0.0877
     18  N         17.3450   69.5880   45.2730 N.3    47  LYS47      -0.1245
     19  CA        16.7370   70.3390   44.1700 C.3    47  LYS47       0.1561
     20  C         15.6850   71.2970   44.7210 C.2    47  LYS47       0.2260
     21  O         15.2880   71.2240   45.8930 O.2    47  LYS47      -0.2867
     22  CB        16.1230   69.3840   43.1470 C.3    47  LYS47       0.0271
     23  CG        17.1700   68.6010   42.3730 C.3    47  LYS47       0.0035
     24  CD        16.5580   67.4510   41.5950 C.3    47  LYS47       0.0206
     25  CE        17.6630   66.7720   40.7590 C.3    47  LYS47       0.1093
     26  NZ        17.2160   65.5290   39.9860 N.3    47  LYS47      -0.1314
     27  N         12.3970   71.7030   44.1240 N.3    49  ASP49      -0.1239
     28  CA        11.1610   71.0950   44.6360 C.3    49  ASP49       0.1674
     29  C         11.3160   70.4000   45.9930 C.2    49  ASP49       0.2266
     30  O         10.3880   70.3940   46.8330 O.2    49  ASP49      -0.2867
     31  CB        10.5160   70.1640   43.6040 C.3    49  ASP49       0.1410
     32  CG        11.3720   68.9260   43.2550 C.2    49  ASP49       0.3668
     33  OD1       12.5810   68.8400   43.5820 O.co2  49  ASP49      -0.2456
     34  OD2       10.7870   68.0130   42.6090 O.co2  49  ASP49      -0.2456
     35  N         23.8180   69.5910   44.3460 N.3    80  HIS80      -0.1241
     36  CA        23.0540   69.5980   43.0980 C.3    80  HIS80       0.1621
     37  C         21.5780   69.8620   43.4360 C.2    80  HIS80       0.2264
     38  O         20.9950   69.0740   44.1860 O.2    80  HIS80      -0.2867
     39  CB        23.2200   68.1920   42.4740 C.3    80  HIS80       0.0745
     40  CG        22.4850   67.9960   41.1820 C.ar   80  HIS80       0.0817
     41  ND1       22.9290   68.5030   39.9760 N.ar   80  HIS80      -0.2268
     42  CD2       21.3490   67.3160   40.9100 C.ar   80  HIS80       0.1154
     43  CE1       22.0770   68.1630   39.0220 C.ar   80  HIS80       0.1986
     44  NE2       21.1240   67.4210   39.5590 N.ar   80  HIS80      -0.2212
     45  N         17.6730   75.1760   38.1050 N.3    84  TRP84      -0.1241
     46  CA        17.3990   74.1910   37.0330 C.3    84  TRP84       0.1605
     47  C         15.9500   74.3450   36.5950 C.2    84  TRP84       0.2264
     48  O         15.0560   74.4760   37.4340 O.2    84  TRP84      -0.2867
     49  CB        17.5890   72.7770   37.5810 C.3    84  TRP84       0.0550
     50  CG        17.4770   71.6740   36.5770 C.ar   84  TRP84       0.0003
     51  CD1       17.8230   71.7130   35.2620 C.ar   84  TRP84       0.0946
     52  CD2       17.0690   70.3220   36.8430 C.ar   84  TRP84       0.0152
     53  NE1       17.6140   70.4820   34.6700 N.ar   84  TRP84      -0.2442
     54  CE2       17.1740   69.6070   35.6320 C.ar   84  TRP84       0.0810
     55  CE3       16.5750   69.6620   37.9910 C.ar   84  TRP84       0.0012
     56  CZ2       16.8050   68.2600   35.5150 C.ar   84  TRP84       0.0191
     57  CZ3       16.2280   68.3130   37.8840 C.ar   84  TRP84       0.0001
     58  CH2       16.3590   67.6230   36.6510 C.ar   84  TRP84       0.0015
     59  N         13.9480   72.2460   35.3150 N.3    86  SER86      -0.1202
     60  CA        13.1200   71.0640   35.4630 C.3    86  SER86       0.2020
     61  C         12.6430   70.9120   36.8940 C.2    86  SER86       0.2618
     62  O         13.3510   71.2520   37.8450 O.2    86  SER86      -0.2717
     63  CB        13.8840   69.8180   35.0250 C.3    86  SER86       0.2103
     64  OG        12.9770   68.7250   34.9540 O.3    86  SER86      -0.2182
     65  N         11.4180   70.4140   37.0170 N.am   87  GLN87      -0.1979
     66  CA        10.8180   70.1370   38.3190 C.3    87  GLN87       0.1601
     67  C         10.7070   71.3920   39.1850 C.2    87  GLN87       0.2287
     68  O         10.7630   71.3090   40.4030 O.2    87  GLN87      -0.2864
     69  CB        11.6330   69.0730   39.0820 C.3    87  GLN87       0.0394
     70  CG        12.0470   67.8480   38.2480 C.3    87  GLN87       0.0908
     71  CD        10.8630   67.0170   37.8160 C.2    87  GLN87       0.2608
     72  OE1       10.1080   66.5130   38.6490 O.2    87  GLN87      -0.2717
     73  NE2       10.6840   66.8790   36.5040 N.am   87  GLN87      -0.0878
     74  N         22.1960   74.5060   36.2110 N.3   126  ASN126     -0.1225
     75  CA        22.1580   73.2270   35.5210 C.3   126  ASN126      0.1785
     76  C         21.3920   73.3240   34.1930 C.2   126  ASN126      0.2597
     77  O         20.2840   73.8760   34.1540 O.2   126  ASN126     -0.2718
     78  CB        21.4920   72.1750   36.4290 C.3   126  ASN126      0.1169
     79  CG        21.6400   70.7560   35.9000 C.2   126  ASN126      0.2627
     80  OD1       22.7120   70.3570   35.4450 O.2   126  ASN126     -0.2716
     81  ND2       20.5320   69.9860   35.9470 N.am  126  ASN126     -0.0877
     82  N         21.9710   72.7500   33.1300 N.am  127  GLU127     -0.1979
     83  CA        21.2800   72.5890   31.8110 C.3   127  GLU127      0.1602
     84  C         20.7360   73.8920   31.2010 C.2   127  GLU127      0.2287
     85  O         19.5840   73.9650   30.7420 O.2   127  GLU127     -0.2864
     86  CB        20.1820   71.5330   31.9110 C.3   127  GLU127      0.0415
     87  CG        20.7710   70.2060   32.3970 C.3   127  GLU127      0.1163
     88  CD        19.7230   69.1060   32.6590 C.2   127  GLU127      0.3649
     89  OE1       18.5380   69.2380   32.2590 O.co2 127  GLU127     -0.2457
     90  OE2       20.1220   68.1000   33.2970 O.co2 127  GLU127     -0.2457
     91  N         24.6030   68.4840   29.9730 N.3   171  TYR171     -0.1241
     92  CA        24.7300   67.2000   29.2530 C.3   171  TYR171      0.1605
     93  C         24.8520   67.4410   27.7540 C.2   171  TYR171      0.2264
     94  O         24.5590   68.5330   27.2620 O.2   171  TYR171     -0.2867
     95  CB        23.5400   66.2840   29.5750 C.3   171  TYR171      0.0534
     96  CG        22.2330   66.7800   29.0230 C.ar  171  TYR171     -0.0201
     97  CD1       21.8240   66.4380   27.7140 C.ar  171  TYR171     -0.0009
     98  CD2       21.4090   67.5920   29.7880 C.ar  171  TYR171     -0.0009
     99  CE1       20.6130   66.8880   27.2030 C.ar  171  TYR171      0.0417
    100  CE2       20.1980   68.0510   29.2810 C.ar  171  TYR171      0.0417
    101  CZ        19.8150   67.7090   27.9910 C.ar  171  TYR171      0.1957
    102  OH        18.6090   68.1660   27.4840 O.3   171  TYR171     -0.2866
    103  N         27.8420   66.0090   32.4670 N.3   203  GLN203     -0.1245
    104  CA        26.9950   64.9800   33.0450 C.3   203  GLN203      0.1566
    105  C         27.3260   63.5750   32.5620 C.2   203  GLN203      0.2260
    106  O         27.3190   62.6230   33.3640 O.2   203  GLN203     -0.2867
    107  CB        25.5410   65.2830   32.7390 C.3   203  GLN203      0.0367
    108  CG        24.9880   66.4640   33.5190 C.3   203  GLN203      0.0905
    109  CD        23.5140   66.7100   33.2210 C.2   203  GLN203      0.2608
    110  OE1       22.7900   65.8030   32.7690 O.2   203  GLN203     -0.2717
    111  NE2       23.0460   67.9340   33.5140 N.am  203  GLN203     -0.0878
    112  N         25.6790   61.4410   30.5300 N.3   205  HIS205     -0.1241
    113  CA        24.6160   60.4510   30.2970 C.3   205  HIS205      0.1621
    114  C         24.7840   59.9230   28.8690 C.2   205  HIS205      0.2264
    115  O         24.2600   60.4990   27.9100 O.2   205  HIS205     -0.2867
    116  CB        23.2280   61.0640   30.5290 C.3   205  HIS205      0.0745
    117  CG        22.9790   61.4300   31.9600 C.ar  205  HIS205      0.0817
    118  ND1       22.9440   60.4870   32.9700 N.ar  205  HIS205     -0.2268
    119  CD2       22.8120   62.6350   32.5590 C.ar  205  HIS205      0.1154
    120  CE1       22.7240   61.0960   34.1260 C.ar  205  HIS205      0.1986
    121  NE2       22.6490   62.4010   33.9050 N.ar  205  HIS205     -0.2212
    122  N         27.5780   62.9810   36.2670 N.3   233  GLU233     -0.1196
    123  CA        26.3930   62.1130   36.3210 C.3   233  GLU233      0.1783
    124  C         26.5420   60.9110   35.4010 C.2   233  GLU233      0.2306
    125  O         25.5860   60.5220   34.7130 O.2   233  GLU233     -0.2863
    126  CB        25.1590   62.9200   35.9240 C.2   233  GLU233      0.0071
    127  CG        25.0190   64.2980   36.6250 C.2   233  GLU233      0.0834
    128  CD        23.7180   65.0150   36.3780 C.2   233  GLU233      0.3877
    129  OE1       22.8090   64.4220   35.7630 O.co2 233  GLU233     -0.2406
    130  OE2       23.5880   66.1980   36.7940 O.co2 233  GLU233     -0.2406
    131  N         25.7750   58.2470   38.3160 N.3   273  TRP273     -0.1241
    132  CA        24.4350   58.7170   38.6670 C.3   273  TRP273      0.1605
    133  C         23.5940   57.5720   39.2730 C.2   273  TRP273      0.2264
    134  O         22.5240   57.1740   38.7500 O.2   273  TRP273     -0.2867
    135  CB        23.7370   59.4060   37.4630 C.3   273  TRP273      0.0550
    136  CG        22.6700   60.3720   37.9270 C.ar  273  TRP273      0.0003
    137  CD1       21.3240   60.2900   37.6940 C.ar  273  TRP273      0.0946
    138  CD2       22.8710   61.5340   38.7430 C.ar  273  TRP273      0.0152
    139  NE1       20.6760   61.3680   38.3020 N.ar  273  TRP273     -0.2442
    140  CE2       21.6070   62.1340   38.9430 C.ar  273  TRP273      0.0810
    141  CE3       24.0010   62.1470   39.3000 C.ar  273  TRP273      0.0012
    142  CZ2       21.4390   63.2870   39.7090 C.ar  273  TRP273      0.0191
    143  CZ3       23.8240   63.3100   40.0670 C.ar  273  TRP273      0.0001
    144  CH2       22.5410   63.8630   40.2410 C.ar  273  TRP273      0.0015
    145  N         17.3820   56.1240   37.0800 N.3   281  TRP281     -0.1241
    146  CA        16.3900   56.9440   36.3770 C.3   281  TRP281      0.1605
    147  C         16.0920   56.4860   34.9320 C.2   281  TRP281      0.2264
    148  O         15.0390   56.8090   34.3880 O.2   281  TRP281     -0.2867
    149  CB        16.8560   58.4110   36.3330 C.3   281  TRP281      0.0550
    150  CG        17.9950   58.6070   35.4060 C.ar  281  TRP281      0.0003
    151  CD1       19.2890   58.2420   35.6080 C.ar  281  TRP281      0.0946
    152  CD2       17.9470   59.2060   34.1020 C.ar  281  TRP281      0.0152
    153  NE1       20.0560   58.5770   34.5130 N.ar  281  TRP281     -0.2442
    154  CE2       19.2520   59.1700   33.5760 C.ar  281  TRP281      0.0810
    155  CE3       16.9130   59.7600   33.3240 C.ar  281  TRP281      0.0012
    156  CZ2       19.5730   59.6740   32.3030 C.ar  281  TRP281      0.0191
    157  CZ3       17.2190   60.2610   32.0520 C.ar  281  TRP281      0.0001
    158  CH2       18.5480   60.2130   31.5500 C.ar  281  TRP281      0.0015
    159  N         12.4820   56.9540   31.8150 N.3   285  VAL285     -0.1245
    160  CA        12.5660   58.0010   30.8190 C.3   285  VAL285      0.1561
    161  C         12.6770   57.4230   29.4020 C.2   285  VAL285      0.2260
    162  O         12.0790   57.9520   28.4760 O.2   285  VAL285     -0.2867
    163  CB        13.7390   58.9800   31.1280 C.3   285  VAL285      0.0252
    164  CG1       14.0010   59.9420   29.9510 C.3   285  VAL285      0.0019
    165  CG2       13.4430   59.7600   32.3900 C.3   285  VAL285      0.0019
@<TRIPOS>BOND
     1    99    97   ar
     2    99   101   ar
     3    94    93    2
     4   102   101    1
     5    97    96   ar
     6    93    92    1
     7   115   114    2
     8   101   100   ar
     9   162   161    2
    10   114   113    1
    11    96    95    1
    12    96    98   ar
    13    92    95    1
    14    92    91    1
    15   100    98   ar
    16   161   160    1
    17   164   163    1
    18   113   116    1
    19   113   112    1
    20   116   117    1
    21    85    84    2
    22   160   163    1
    23   160   159    1
    24   163   165    1
    25    84    83    1
    26   158   157   ar
    27   158   156   ar
    28    83    86    1
    29    83    82    1
    30    86    87    1
    31   117   119   ar
    32   117   118   ar
    33   157   155   ar
    34    89    88   ar
    35   156   154   ar
    36    87    88    1
    37   103   104    1
    38   119   121   ar
    39   105   104    1
    40   105   106    2
    41    88    90   ar
    42   107   104    1
    43   107   108    1
    44   110   109    2
    45   118   120   ar
    46    82    76   am
    47   109   111   am
    48   109   108    1
    49   155   152   ar
    50   154   152   ar
    51   154   153   ar
    52   121   120   ar
    53   152   150   ar
    54    77    76    2
    55    76    75    1
    56   148   147    2
    57   153   151   ar
    58    53    51   ar
    59    53    54   ar
    60   125   124    2
    61   147   146    1
    62    64    63    1
    63    63    60    1
    64    51    50   ar
    65    59    60    1
    66   124   123    1
    67   150   151   ar
    68   150   149    1
    69    80    79    2
    70    60    61    1
    71    56    54   ar
    72    56    58   ar
    73    75    74    1
    74    75    78    1
    75    54    52   ar
    76   129   128   ar
    77    79    81   am
    78    79    78    1
    79   126   123    1
    80   126   127    2
    81   122   123    1
    82   149   146    1
    83   146   145    1
    84   128   127    1
    85   128   130   ar
    86    73    71   am
    87    50    52   ar
    88    50    49    1
    89    47    46    1
    90    47    48    2
    91    58    57   ar
    92    52    55   ar
    93    61    65   am
    94    61    62    2
    95    65    66    1
    96    46    49    1
    97    46    45    1
    98   135   136    1
    99   135   132    1
   100   137   136   ar
   101   137   139   ar
   102    71    70    1
   103    71    72    2
   104    57    55   ar
   105   136   138   ar
   106    70    69    1
   107   139   140   ar
   108   131   132    1
   109    66    69    1
   110    66    67    1
   111   132   133    1
   112   138   140   ar
   113   138   141   ar
   114   134   133    2
   115   140   142   ar
   116    43    44   ar
   117    43    41   ar
   118    67    68    2
   119   141   143   ar
   120    44    42   ar
   121   142   144   ar
   122    41    40   ar
   123    26    25    1
   124   143   144   ar
   125     9     7   ar
   126    25    24    1
   127    42    40   ar
   128    40    39    1
   129    24    23    1
   130     7     6    1
   131     7     8   ar
   132    16    15    2
   133     6     5    1
   134     4     3    2
   135    23    22    1
   136    39    36    1
   137    34    32   ar
   138    17    15   am
   139    15    14    1
   140    36    37    1
   141    36    35    1
   142    22    19    1
   143     3     2    1
   144     3    10   am
   145    32    33   ar
   146    32    31    1
   147     5     2    1
   148     2     1    1
   149    37    38    2
   150    31    28    1
   151    14    11    1
   152    27    28    1
   153    19    20    1
   154    19    18    1
   155    11    10    1
   156    11    12    1
   157    28    29    1
   158    20    21    2
   159    13    12    2
   160    29    30    2
