@<TRIPOS>MOLECULE
tmp/3cugA00.pdb
 181 174 0 0 0
SMALL
GASTEIGER

@<TRIPOS>ATOM
      1  N         20.1820   58.5430   47.0260 N.3    20  ASP20      -0.1239
      2  CA        18.8120   58.6940   47.4800 C.3    20  ASP20       0.1674
      3  C         18.8360   58.3730   48.9830 C.2    20  ASP20       0.2266
      4  O         19.0530   57.2160   49.3540 O.2    20  ASP20      -0.2867
      5  CB        17.8790   57.7050   46.7490 C.3    20  ASP20       0.1410
      6  CG        16.4420   57.7620   47.2710 C.2    20  ASP20       0.3668
      7  OD1       16.2170   58.3780   48.3420 O.co2  20  ASP20      -0.2456
      8  OD2       15.5370   57.2020   46.5920 O.co2  20  ASP20      -0.2456
      9  N         16.7360   57.8890   51.1720 N.3    22  ASN22      -0.1240
     10  CA        15.7830   56.8480   51.5850 C.3    22  ASN22       0.1653
     11  C         16.3210   55.4350   51.4360 C.2    22  ASN22       0.2266
     12  O         15.9300   54.5350   52.1880 O.2    22  ASN22      -0.2867
     13  CB        14.4930   56.9670   50.7990 C.3    22  ASN22       0.1155
     14  CG        13.7330   58.2310   51.1210 C.2    22  ASN22       0.2627
     15  OD1       13.8310   58.7630   52.2280 O.2    22  ASN22      -0.2716
     16  ND2       12.9640   58.7240   50.1510 N.am   22  ASN22      -0.0877
     17  N         20.9060   62.8470   44.5480 N.3    43  GLU43      -0.1231
     18  CA        20.2410   62.6520   43.2750 C.3    43  GLU43       0.1699
     19  C         19.0520   63.6220   43.0770 C.2    43  GLU43       0.2592
     20  O         18.8330   64.1390   41.9610 O.2    43  GLU43      -0.2718
     21  CB        19.7640   61.2020   43.1530 C.3    43  GLU43       0.0402
     22  CG        19.2560   60.8860   41.7450 C.3    43  GLU43       0.1161
     23  CD        18.6300   59.5070   41.6470 C.2    43  GLU43       0.3649
     24  OE1       18.3930   58.8920   42.7170 O.co2  43  GLU43      -0.2457
     25  OE2       18.3430   59.0650   40.5030 O.co2  43  GLU43      -0.2457
     26  N         18.3100   63.8710   44.1640 N.am   44  ASN44      -0.1974
     27  CA        17.0930   64.6890   44.1200 C.3    44  ASN44       0.1688
     28  C         16.8930   65.6050   45.3360 C.2    44  ASN44       0.2292
     29  O         16.1820   66.6010   45.2350 O.2    44  ASN44      -0.2864
     30  CB        15.8670   63.7660   44.0160 C.3    44  ASN44       0.1181
     31  CG        15.7040   63.2090   42.6360 C.2    44  ASN44       0.2629
     32  OD1       15.5550   63.9640   41.6750 O.2    44  ASN44      -0.2716
     33  ND2       15.7150   61.8880   42.5140 N.am   44  ASN44      -0.0877
     34  N         17.3830   69.5660   45.1460 N.3    47  LYS47      -0.1245
     35  CA        16.7390   70.3220   44.0710 C.3    47  LYS47       0.1561
     36  C         15.7030   71.2820   44.6420 C.2    47  LYS47       0.2260
     37  O         15.3200   71.2060   45.8230 O.2    47  LYS47      -0.2867
     38  CB        16.1150   69.3710   43.0520 C.3    47  LYS47       0.0271
     39  CG        17.1610   68.5820   42.2940 C.3    47  LYS47       0.0035
     40  CD        16.5400   67.4590   41.4970 C.3    47  LYS47       0.0206
     41  CE        17.6420   66.7500   40.7000 C.3    47  LYS47       0.1093
     42  NZ        17.1450   65.5230   39.9500 N.3    47  LYS47      -0.1314
     43  N         12.4120   71.6740   44.0470 N.3    49  ASP49      -0.1239
     44  CA        11.1730   71.0450   44.5370 C.3    49  ASP49       0.1674
     45  C         11.3300   70.3920   45.9150 C.2    49  ASP49       0.2266
     46  O         10.4240   70.4740   46.7710 O.2    49  ASP49      -0.2867
     47  CB        10.5670   70.0800   43.5000 C.3    49  ASP49       0.1410
     48  CG        11.4650   68.8780   43.1640 C.2    49  ASP49       0.3668
     49  OD1       12.6650   68.8450   43.5060 O.co2  49  ASP49      -0.2456
     50  OD2       10.9340   67.9430   42.5100 O.co2  49  ASP49      -0.2456
     51  N         23.8050   69.5990   44.2610 N.3    80  HIS80      -0.1241
     52  CA        23.0560   69.5820   42.9940 C.3    80  HIS80       0.1621
     53  C         21.5820   69.8570   43.3210 C.2    80  HIS80       0.2264
     54  O         21.0130   69.0920   44.0800 O.2    80  HIS80      -0.2867
     55  CB        23.2180   68.1650   42.3840 C.3    80  HIS80       0.0745
     56  CG        22.4770   67.9630   41.0980 C.ar   80  HIS80       0.0817
     57  ND1       22.9250   68.4620   39.8910 N.ar   80  HIS80      -0.2268
     58  CD2       21.3440   67.2720   40.8250 C.ar   80  HIS80       0.1154
     59  CE1       22.0790   68.1130   38.9350 C.ar   80  HIS80       0.1986
     60  NE2       21.1140   67.3870   39.4740 N.ar   80  HIS80      -0.2212
     61  N         17.6700   75.2190   38.0160 N.3    84  TRP84      -0.1241
     62  CA        17.3720   74.2280   36.9680 C.3    84  TRP84       0.1605
     63  C         15.9130   74.3720   36.5330 C.2    84  TRP84       0.2264
     64  O         15.0090   74.5100   37.3710 O.2    84  TRP84      -0.2867
     65  CB        17.5790   72.8080   37.5120 C.3    84  TRP84       0.0550
     66  CG        17.4930   71.7040   36.4970 C.ar   84  TRP84       0.0003
     67  CD1       17.8650   71.7540   35.1700 C.ar   84  TRP84       0.0946
     68  CD2       17.0990   70.3490   36.7540 C.ar   84  TRP84       0.0152
     69  NE1       17.6690   70.5170   34.5770 N.ar   84  TRP84      -0.2442
     70  CE2       17.2220   69.6370   35.5350 C.ar   84  TRP84       0.0810
     71  CE3       16.6000   69.6810   37.8900 C.ar   84  TRP84       0.0012
     72  CZ2       16.8810   68.2840   35.4170 C.ar   84  TRP84       0.0191
     73  CZ3       16.2700   68.3240   37.7810 C.ar   84  TRP84       0.0001
     74  CH2       16.4210   67.6420   36.5460 C.ar   84  TRP84       0.0015
     75  N         13.9440   72.2000   35.2510 N.3    86  SER86      -0.1202
     76  CA        13.1180   71.0140   35.4630 C.3    86  SER86       0.2020
     77  C         12.6760   70.8720   36.9060 C.2    86  SER86       0.2618
     78  O         13.4130   71.2190   37.8240 O.2    86  SER86      -0.2717
     79  CB        13.8470   69.7530   35.0150 C.3    86  SER86       0.2103
     80  OG        12.9580   68.6520   35.0100 O.3    86  SER86      -0.2182
     81  N         11.4550   70.3620   37.0620 N.am   87  GLN87      -0.1979
     82  CA        10.8620   70.0950   38.3700 C.3    87  GLN87       0.1601
     83  C         10.6390   71.3730   39.1690 C.2    87  GLN87       0.2287
     84  O         10.4730   71.3080   40.3670 O.2    87  GLN87      -0.2864
     85  CB        11.7550   69.1550   39.2010 C.3    87  GLN87       0.0394
     86  CG        12.1250   67.8180   38.5390 C.3    87  GLN87       0.0908
     87  CD        10.9160   67.0640   38.0300 C.2    87  GLN87       0.2608
     88  OE1       10.1520   66.4920   38.8130 O.2    87  GLN87      -0.2717
     89  NE2       10.7290   67.0620   36.7110 N.am   87  GLN87      -0.0878
     90  N         22.1800   74.5400   36.1060 N.3   126  ASN126     -0.1225
     91  CA        22.1600   73.2550   35.4240 C.3   126  ASN126      0.1785
     92  C         21.4080   73.3480   34.0990 C.2   126  ASN126      0.2597
     93  O         20.2980   73.8940   34.0650 O.2   126  ASN126     -0.2718
     94  CB        21.4530   72.2240   36.3260 C.3   126  ASN126      0.1169
     95  CG        21.6390   70.7900   35.8480 C.2   126  ASN126      0.2627
     96  OD1       22.7220   70.4080   35.4010 O.2   126  ASN126     -0.2716
     97  ND2       20.5790   69.9740   35.9740 N.am  126  ASN126     -0.0877
     98  N         21.9870   72.7780   33.0350 N.am  127  GLU127     -0.1979
     99  CA        21.2810   72.6040   31.7250 C.3   127  GLU127      0.1602
    100  C         20.7450   73.9100   31.1000 C.2   127  GLU127      0.2287
    101  O         19.6020   73.9780   30.6290 O.2   127  GLU127     -0.2864
    102  CB        20.1710   71.5600   31.8620 C.3   127  GLU127      0.0415
    103  CG        20.7600   70.2070   32.2670 C.3   127  GLU127      0.1163
    104  CD        19.7050   69.1160   32.5060 C.2   127  GLU127      0.3649
    105  OE1       18.5110   69.2950   32.1490 O.co2 127  GLU127     -0.2457
    106  OE2       20.0980   68.0770   33.0960 O.co2 127  GLU127     -0.2457
    107  N         24.6170   68.4980   29.8460 N.3   171  TYR171     -0.1241
    108  CA        24.7460   67.2160   29.1280 C.3   171  TYR171      0.1605
    109  C         24.8420   67.4500   27.6300 C.2   171  TYR171      0.2264
    110  O         24.5220   68.5310   27.1400 O.2   171  TYR171     -0.2867
    111  CB        23.5510   66.3140   29.4480 C.3   171  TYR171      0.0534
    112  CG        22.2440   66.8090   28.8990 C.ar  171  TYR171     -0.0201
    113  CD1       21.8280   66.4680   27.5970 C.ar  171  TYR171     -0.0009
    114  CD2       21.4100   67.6210   29.6670 C.ar  171  TYR171     -0.0009
    115  CE1       20.6040   66.9220   27.0870 C.ar  171  TYR171      0.0417
    116  CE2       20.1820   68.0810   29.1560 C.ar  171  TYR171      0.0417
    117  CZ        19.7970   67.7340   27.8730 C.ar  171  TYR171      0.1957
    118  OH        18.5900   68.1740   27.3600 O.3   171  TYR171     -0.2866
    119  N         27.8270   66.0080   32.3850 N.3   203  GLN203     -0.1245
    120  CA        26.9590   64.9800   32.9370 C.3   203  GLN203      0.1566
    121  C         27.2970   63.5760   32.4360 C.2   203  GLN203      0.2260
    122  O         27.3260   62.6300   33.2240 O.2   203  GLN203     -0.2867
    123  CB        25.5000   65.2800   32.6370 C.3   203  GLN203      0.0367
    124  CG        24.9420   66.4640   33.4120 C.3   203  GLN203      0.0905
    125  CD        23.4700   66.6900   33.1130 C.2   203  GLN203      0.2608
    126  OE1       22.7730   65.7760   32.6500 O.2   203  GLN203     -0.2717
    127  NE2       22.9820   67.9110   33.3890 N.am  203  GLN203     -0.0878
    128  N         25.6540   61.4100   30.4060 N.3   205  HIS205     -0.1241
    129  CA        24.5890   60.4200   30.2120 C.3   205  HIS205      0.1621
    130  C         24.7360   59.9050   28.7840 C.2   205  HIS205      0.2264
    131  O         24.2020   60.5030   27.8270 O.2   205  HIS205     -0.2867
    132  CB        23.2060   61.0410   30.4500 C.3   205  HIS205      0.0745
    133  CG        22.9670   61.4090   31.8810 C.ar  205  HIS205      0.0817
    134  ND1       22.9340   60.4670   32.8900 N.ar  205  HIS205     -0.2268
    135  CD2       22.8030   62.6110   32.4830 C.ar  205  HIS205      0.1154
    136  CE1       22.7160   61.0690   34.0480 C.ar  205  HIS205      0.1986
    137  NE2       22.6490   62.3750   33.8340 N.ar  205  HIS205     -0.2212
    138  N         27.6000   62.9750   36.1430 N.3   233  GLU233     -0.1245
    139  CA        26.4040   62.1130   36.1930 C.3   233  GLU233      0.1567
    140  C         26.5360   60.9090   35.2680 C.2   233  GLU233      0.2260
    141  O         25.5810   60.5350   34.5840 O.2   233  GLU233     -0.2867
    142  CB        25.1620   62.9310   35.7920 C.3   233  GLU233      0.0388
    143  CG        24.9970   64.2810   36.5430 C.3   233  GLU233      0.1160
    144  CD        23.7000   65.0050   36.2560 C.2   233  GLU233      0.3649
    145  OE1       22.7850   64.3980   35.6520 O.co2 233  GLU233     -0.2457
    146  OE2       23.5880   66.2000   36.6520 O.co2 233  GLU233     -0.2457
    147  N         25.7740   58.2550   38.2080 N.3   273  TRP273     -0.1241
    148  CA        24.4520   58.7180   38.5700 C.3   273  TRP273      0.1605
    149  C         23.6250   57.5810   39.1840 C.2   273  TRP273      0.2264
    150  O         22.5690   57.1680   38.6450 O.2   273  TRP273     -0.2867
    151  CB        23.7520   59.3810   37.3740 C.3   273  TRP273      0.0550
    152  CG        22.6850   60.3410   37.8440 C.ar  273  TRP273      0.0003
    153  CD1       21.3430   60.2500   37.6250 C.ar  273  TRP273      0.0946
    154  CD2       22.8880   61.5030   38.6550 C.ar  273  TRP273      0.0152
    155  NE1       20.6880   61.3220   38.2370 N.ar  273  TRP273     -0.2442
    156  CE2       21.6200   62.1000   38.8650 C.ar  273  TRP273      0.0810
    157  CE3       24.0210   62.1200   39.1950 C.ar  273  TRP273      0.0012
    158  CZ2       21.4520   63.2640   39.6290 C.ar  273  TRP273      0.0191
    159  CZ3       23.8500   63.2960   39.9500 C.ar  273  TRP273      0.0001
    160  CH2       22.5650   63.8530   40.1340 C.ar  273  TRP273      0.0015
    161  N         17.4200   56.0860   37.0130 N.3   281  TRP281     -0.1241
    162  CA        16.4110   56.9090   36.3380 C.3   281  TRP281      0.1605
    163  C         16.1150   56.4910   34.8860 C.2   281  TRP281      0.2264
    164  O         15.0570   56.8250   34.3640 O.2   281  TRP281     -0.2867
    165  CB        16.8530   58.3840   36.3020 C.3   281  TRP281      0.0550
    166  CG        17.9760   58.6200   35.3560 C.ar  281  TRP281      0.0003
    167  CD1       19.2700   58.2260   35.5120 C.ar  281  TRP281      0.0946
    168  CD2       17.9180   59.3070   34.0940 C.ar  281  TRP281      0.0152
    169  NE1       20.0230   58.6190   34.4270 N.ar  281  TRP281     -0.2442
    170  CE2       19.2170   59.2800   33.5420 C.ar  281  TRP281      0.0810
    171  CE3       16.8870   59.9210   33.3680 C.ar  281  TRP281      0.0012
    172  CZ2       19.5270   59.8550   32.2920 C.ar  281  TRP281      0.0191
    173  CZ3       17.1920   60.5030   32.1220 C.ar  281  TRP281      0.0001
    174  CH2       18.5040   60.4640   31.6010 C.ar  281  TRP281      0.0015
    175  N         12.5280   56.9720   31.6480 N.3   285  VAL285     -0.1245
    176  CA        12.5850   58.0260   30.6540 C.3   285  VAL285      0.1561
    177  C         12.7240   57.4610   29.2370 C.2   285  VAL285      0.2260
    178  O         12.1470   57.9930   28.2910 O.2   285  VAL285     -0.2867
    179  CB        13.7210   59.0220   30.9590 C.3   285  VAL285      0.0252
    180  CG1       13.9390   59.9930   29.7830 C.3   285  VAL285      0.0019
    181  CG2       13.4150   59.7850   32.2340 C.3   285  VAL285      0.0019
@<TRIPOS>BOND
     1   115   113   ar
     2   115   117   ar
     3   110   109    2
     4   118   117    1
     5   113   112   ar
     6   109   108    1
     7   131   130    2
     8   117   116   ar
     9   178   177    2
    10   130   129    1
    11   112   111    1
    12   112   114   ar
    13   108   111    1
    14   108   107    1
    15   116   114   ar
    16   177   176    1
    17   180   179    1
    18   129   128    1
    19   129   132    1
    20   132   133    1
    21   101   100    2
    22   176   179    1
    23   176   175    1
    24   179   181    1
    25   100    99    1
    26   174   173   ar
    27   174   172   ar
    28    99   102    1
    29    99    98    1
    30   102   103    1
    31   133   135   ar
    32   133   134   ar
    33   173   171   ar
    34   105   104   ar
    35   103   104    1
    36   172   170   ar
    37   119   120    1
    38   121   120    1
    39   121   122    2
    40   135   137   ar
    41   104   106   ar
    42   123   120    1
    43   123   124    1
    44   126   125    2
    45   134   136   ar
    46    98    92   am
    47   125   127   am
    48   125   124    1
    49   171   168   ar
    50   170   168   ar
    51   170   169   ar
    52   137   136   ar
    53    93    92    2
    54   168   166   ar
    55    92    91    1
    56   164   163    2
    57   169   167   ar
    58    69    67   ar
    59    69    70   ar
    60   141   140    2
    61   163   162    1
    62    80    79    1
    63    79    76    1
    64    67    66   ar
    65    75    76    1
    66   140   139    1
    67   166   167   ar
    68   166   165    1
    69    96    95    2
    70    72    70   ar
    71    72    74   ar
    72    91    90    1
    73    91    94    1
    74    76    77    1
    75    70    68   ar
    76   145   144   ar
    77   142   139    1
    78   142   143    1
    79    95    97   am
    80    95    94    1
    81   138   139    1
    82   144   143    1
    83   144   146   ar
    84   165   162    1
    85   162   161    1
    86    66    68   ar
    87    66    65    1
    88    63    62    1
    89    63    64    2
    90    74    73   ar
    91    89    87   am
    92    68    71   ar
    93    77    81   am
    94    77    78    2
    95    62    65    1
    96    62    61    1
    97    81    82    1
    98   151   152    1
    99   151   148    1
   100   153   152   ar
   101   153   155   ar
   102    73    71   ar
   103   152   154   ar
   104    87    86    1
   105    87    88    2
   106   147   148    1
   107   155   156   ar
   108    82    83    1
   109    82    85    1
   110    86    85    1
   111   148   149    1
   112   150   149    2
   113   154   156   ar
   114   154   157   ar
   115   156   158   ar
   116    59    60   ar
   117    59    57   ar
   118    83    84    2
   119   157   159   ar
   120    60    58   ar
   121   158   160   ar
   122    57    56   ar
   123   159   160   ar
   124    42    41    1
   125    25    23   ar
   126    41    40    1
   127    58    56   ar
   128    56    55    1
   129    40    39    1
   130    23    22    1
   131    23    24   ar
   132    32    31    2
   133    22    21    1
   134    20    19    2
   135    39    38    1
   136    55    52    1
   137    50    48   ar
   138    33    31   am
   139    31    30    1
   140    52    53    1
   141    52    51    1
   142    38    35    1
   143    19    18    1
   144    19    26   am
   145    21    18    1
   146    48    47    1
   147    48    49   ar
   148    18    17    1
   149    53    54    2
   150    47    44    1
   151    30    27    1
   152    43    44    1
   153    35    36    1
   154    35    34    1
   155    27    26    1
   156    27    28    1
   157    44    45    1
   158    36    37    2
   159    29    28    2
   160    45    46    2
   161     8     6   ar
   162     5     6    1
   163     5     2    1
   164     1     2    1
   165     6     7   ar
   166     2     3    1
   167     3     4    2
   168    16    14   am
   169    13    14    1
   170    13    10    1
   171    14    15    2
   172     9    10    1
   173    11    10    1
   174    11    12    2
