@<TRIPOS>MOLECULE
tmp/3cuhA00.pdb
 191 187 0 0 0
SMALL
GASTEIGER

@<TRIPOS>ATOM
      1  N         20.9700   63.3350   44.8260 N.3    43  GLU43      -0.1231
      2  CA        20.3530   63.0990   43.5310 C.3    43  GLU43       0.1699
      3  C         19.1790   64.0500   43.3260 C.2    43  GLU43       0.2592
      4  O         19.0150   64.6160   42.2220 O.2    43  GLU43      -0.2718
      5  CB        19.9040   61.6310   43.3760 C.3    43  GLU43       0.0402
      6  CG        19.3000   61.3560   41.9810 C.3    43  GLU43       0.1161
      7  CD        18.7470   59.9500   41.8270 C.2    43  GLU43       0.3649
      8  OE1       18.4800   59.3260   42.8670 O.co2  43  GLU43      -0.2457
      9  OE2       18.6040   59.4920   40.6660 O.co2  43  GLU43      -0.2457
     10  N         18.4050   64.2450   44.4010 N.am   44  ASN44      -0.1974
     11  CA        17.1820   65.0590   44.3730 C.3    44  ASN44       0.1688
     12  C         16.9750   65.9730   45.5840 C.2    44  ASN44       0.2292
     13  O         16.2570   66.9460   45.4690 O.2    44  ASN44      -0.2864
     14  CB        15.9640   64.1290   44.2270 C.3    44  ASN44       0.1181
     15  CG        15.8940   63.5000   42.8700 C.2    44  ASN44       0.2629
     16  OD1       15.8870   64.2050   41.8650 O.2    44  ASN44      -0.2716
     17  ND2       15.8610   62.1710   42.8210 N.am   44  ASN44      -0.0877
     18  N         17.4220   69.9870   45.4230 N.3    47  LYS47      -0.1245
     19  CA        16.7720   70.7220   44.3390 C.3    47  LYS47       0.1561
     20  C         15.7300   71.6790   44.8830 C.2    47  LYS47       0.2260
     21  O         15.3370   71.5850   46.0510 O.2    47  LYS47      -0.2867
     22  CB        16.1320   69.7520   43.3400 C.3    47  LYS47       0.0271
     23  CG        17.1910   69.0410   42.4930 C.3    47  LYS47       0.0035
     24  CD        16.6320   67.8180   41.7750 C.3    47  LYS47       0.0206
     25  CE        17.7320   67.1990   40.9150 C.3    47  LYS47       0.1093
     26  NZ        17.2770   65.9130   40.2780 N.3    47  LYS47      -0.1314
     27  N         12.3800   72.1350   44.3340 N.3    49  ASP49      -0.1239
     28  CA        11.1710   71.5080   44.8560 C.3    49  ASP49       0.1674
     29  C         11.3720   70.8210   46.2080 C.2    49  ASP49       0.2266
     30  O         10.4610   70.8050   47.0400 O.2    49  ASP49      -0.2867
     31  CB        10.5300   70.5330   43.8500 C.3    49  ASP49       0.1410
     32  CG        11.4100   69.3060   43.5230 C.2    49  ASP49       0.3668
     33  OD1       12.6160   69.2270   43.8890 O.co2  49  ASP49      -0.2456
     34  OD2       10.8510   68.3880   42.8740 O.co2  49  ASP49      -0.2456
     35  N         23.8410   70.0300   44.5230 N.3    80  HIS80      -0.1241
     36  CA        23.0780   70.0050   43.2600 C.3    80  HIS80       0.1621
     37  C         21.6120   70.2380   43.6250 C.2    80  HIS80       0.2264
     38  O         21.0380   69.4400   44.3690 O.2    80  HIS80      -0.2867
     39  CB        23.3180   68.6260   42.5800 C.3    80  HIS80       0.0745
     40  CG        22.5560   68.4040   41.3050 C.ar   80  HIS80       0.0817
     41  ND1       22.9710   68.9220   40.0930 N.ar   80  HIS80      -0.2268
     42  CD2       21.4280   67.6940   41.0490 C.ar   80  HIS80       0.1154
     43  CE1       22.1150   68.5610   39.1480 C.ar   80  HIS80       0.1986
     44  NE2       21.1780   67.8010   39.7000 N.ar   80  HIS80      -0.2212
     45  N         17.6850   75.6030   38.2760 N.3    84  TRP84      -0.1241
     46  CA        17.4260   74.6270   37.2250 C.3    84  TRP84       0.1605
     47  C         15.9720   74.7720   36.7850 C.2    84  TRP84       0.2264
     48  O         15.0590   74.8360   37.6310 O.2    84  TRP84      -0.2867
     49  CB        17.6460   73.2070   37.7630 C.3    84  TRP84       0.0550
     50  CG        17.5460   72.1040   36.7510 C.ar   84  TRP84       0.0003
     51  CD1       17.8940   72.1570   35.4160 C.ar   84  TRP84       0.0946
     52  CD2       17.1580   70.7490   37.0100 C.ar   84  TRP84       0.0152
     53  NE1       17.7010   70.9170   34.8360 N.ar   84  TRP84      -0.2442
     54  CE2       17.2660   70.0390   35.7930 C.ar   84  TRP84       0.0810
     55  CE3       16.6960   70.0740   38.1530 C.ar   84  TRP84       0.0012
     56  CZ2       16.9330   68.6850   35.6820 C.ar   84  TRP84       0.0191
     57  CZ3       16.3580   68.7140   38.0380 C.ar   84  TRP84       0.0001
     58  CH2       16.4810   68.0410   36.8140 C.ar   84  TRP84       0.0015
     59  N         14.0080   72.6710   35.4290 N.3    86  SER86      -0.1202
     60  CA        13.1690   71.4830   35.5960 C.3    86  SER86       0.2020
     61  C         12.6170   71.3520   37.0160 C.2    86  SER86       0.2618
     62  O         13.3020   71.6550   37.9980 O.2    86  SER86      -0.2717
     63  CB        13.9250   70.2230   35.1570 C.3    86  SER86       0.2103
     64  OG        13.0640   69.1050   35.2080 O.3    86  SER86      -0.2182
     65  N         11.3560   70.9230   37.1000 N.am   87  GLN87      -0.1979
     66  CA        10.6800   70.6210   38.3720 C.3    87  GLN87       0.1601
     67  C         10.6570   71.8320   39.3200 C.2    87  GLN87       0.2287
     68  O         10.7530   71.6750   40.5370 O.2    87  GLN87      -0.2864
     69  CB        11.3470   69.4250   39.0800 C.3    87  GLN87       0.0394
     70  CG        11.5990   68.1870   38.1980 C.3    87  GLN87       0.0908
     71  CD        10.5750   67.1100   38.4190 C.2    87  GLN87       0.2608
     72  OE1       10.1900   66.8300   39.5610 O.2    87  GLN87      -0.2717
     73  NE2       10.1190   66.4900   37.3310 N.am   87  GLN87      -0.0878
     74  N         22.2400   74.9090   36.3860 N.3   126  ASN126     -0.1225
     75  CA        22.2040   73.6200   35.6900 C.3   126  ASN126      0.1785
     76  C         21.4470   73.7470   34.3520 C.2   126  ASN126      0.2597
     77  O         20.3430   74.3090   34.3270 O.2   126  ASN126     -0.2718
     78  CB        21.5080   72.5760   36.5930 C.3   126  ASN126      0.1169
     79  CG        21.6450   71.1430   36.0700 C.2   126  ASN126      0.2627
     80  OD1       22.7110   70.7460   35.6100 O.2   126  ASN126     -0.2716
     81  ND2       20.5470   70.3630   36.1430 N.am  126  ASN126     -0.0877
     82  N         22.0310   73.2260   33.2610 N.am  127  GLU127     -0.1979
     83  CA        21.3010   73.0470   31.9710 C.3   127  GLU127      0.1602
     84  C         20.7460   74.3450   31.3570 C.2   127  GLU127      0.2287
     85  O         19.5820   74.3960   30.9150 O.2   127  GLU127     -0.2864
     86  CB        20.2070   71.9600   32.0890 C.3   127  GLU127      0.0415
     87  CG        20.7950   70.5970   32.4770 C.3   127  GLU127      0.1163
     88  CD        19.7500   69.5170   32.7800 C.2   127  GLU127      0.3649
     89  OE1       18.5610   69.6700   32.3950 O.co2 127  GLU127     -0.2457
     90  OE2       20.1440   68.4970   33.3990 O.co2 127  GLU127     -0.2457
     91  N         24.5680   68.8660   30.1210 N.3   171  TYR171     -0.1241
     92  CA        24.7260   67.6030   29.4000 C.3   171  TYR171      0.1605
     93  C         24.8710   67.8890   27.9140 C.2   171  TYR171      0.2264
     94  O         24.5660   69.0040   27.4540 O.2   171  TYR171     -0.2867
     95  CB        23.5160   66.6790   29.6440 C.3   171  TYR171      0.0534
     96  CG        22.2110   67.2130   29.1050 C.ar  171  TYR171     -0.0201
     97  CD1       21.3950   68.0160   29.8850 C.ar  171  TYR171     -0.0009
     98  CD2       21.7850   66.8980   27.7980 C.ar  171  TYR171     -0.0009
     99  CE1       20.1660   68.5240   29.3830 C.ar  171  TYR171      0.0417
    100  CE2       20.5840   67.3900   27.2930 C.ar  171  TYR171      0.0417
    101  CZ        19.7730   68.1960   28.1000 C.ar  171  TYR171      0.1957
    102  OH        18.5880   68.6910   27.5960 O.3   171  TYR171     -0.2866
    103  N         27.8920   66.4140   32.6390 N.3   203  GLN203     -0.1245
    104  CA        27.0040   65.3860   33.1750 C.3   203  GLN203      0.1566
    105  C         27.3480   63.9880   32.6610 C.2   203  GLN203      0.2260
    106  O         27.3940   63.0560   33.4350 O.2   203  GLN203     -0.2867
    107  CB        25.5700   65.7130   32.8480 C.3   203  GLN203      0.0367
    108  CG        24.9910   66.8600   33.6610 C.3   203  GLN203      0.0905
    109  CD        23.5330   67.1140   33.3170 C.2   203  GLN203      0.2608
    110  OE1       22.8070   66.2040   32.8630 O.2   203  GLN203     -0.2717
    111  NE2       23.0770   68.3350   33.5780 N.am  203  GLN203     -0.0878
    112  N         25.7350   61.8280   30.6630 N.3   205  HIS205     -0.1241
    113  CA        24.6920   60.8280   30.4100 C.3   205  HIS205      0.1621
    114  C         24.8290   60.3240   28.9720 C.2   205  HIS205      0.2264
    115  O         24.3250   60.9260   28.0260 O.2   205  HIS205     -0.2867
    116  CB        23.3000   61.3960   30.6660 C.3   205  HIS205      0.0745
    117  CG        23.0630   61.7920   32.0950 C.ar  205  HIS205      0.0817
    118  ND1       22.9630   60.8730   33.1230 N.ar  205  HIS205     -0.2268
    119  CD2       22.9100   63.0120   32.6630 C.ar  205  HIS205      0.1154
    120  CE1       22.7490   61.5140   34.2610 C.ar  205  HIS205      0.1986
    121  NE2       22.7140   62.8140   34.0080 N.ar  205  HIS205     -0.2212
    122  N         27.6440   63.3430   36.4040 N.3   233  GLU233     -0.1245
    123  CA        26.4240   62.5250   36.4570 C.3   233  GLU233      0.1567
    124  C         26.5920   61.3170   35.5560 C.2   233  GLU233      0.2260
    125  O         25.6650   60.9100   34.8660 O.2   233  GLU233     -0.2867
    126  CB        25.2110   63.3490   35.9830 C.3   233  GLU233      0.0388
    127  CG        25.0690   64.6800   36.7450 C.3   233  GLU233      0.1160
    128  CD        23.7850   65.4050   36.4860 C.2   233  GLU233      0.3649
    129  OE1       22.8820   64.8230   35.8540 O.co2 233  GLU233     -0.2457
    130  OE2       23.6660   66.5590   36.9510 O.co2 233  GLU233     -0.2457
    131  N         25.8950   58.6890   38.4770 N.3   273  TRP273     -0.1241
    132  CA        24.5540   59.1430   38.8490 C.3   273  TRP273      0.1605
    133  C         23.7280   57.9900   39.4260 C.2   273  TRP273      0.2264
    134  O         22.7050   57.5750   38.8480 O.2   273  TRP273     -0.2867
    135  CB        23.8680   59.8030   37.6470 C.3   273  TRP273      0.0550
    136  CG        22.8240   60.7500   38.0650 C.ar  273  TRP273      0.0003
    137  CD1       21.4670   60.6700   37.8060 C.ar  273  TRP273      0.0946
    138  CD2       23.0150   61.9090   38.8810 C.ar  273  TRP273      0.0152
    139  NE1       20.8210   61.7400   38.4050 N.ar  273  TRP273     -0.2442
    140  CE2       21.7510   62.5130   39.0560 C.ar  273  TRP273      0.0810
    141  CE3       24.1540   62.5330   39.4390 C.ar  273  TRP273      0.0012
    142  CZ2       21.5810   63.7020   39.7760 C.ar  273  TRP273      0.0191
    143  CZ3       23.9750   63.6980   40.1880 C.ar  273  TRP273      0.0001
    144  CH2       22.6930   64.2730   40.3340 C.ar  273  TRP273      0.0015
    145  N         17.7010   51.4000   40.8000 N.3   279  TYR279     -0.1227
    146  CA        17.1830   52.7390   41.1160 C.3   279  TYR279      0.1736
    147  C         17.4540   53.8300   40.0950 C.2   279  TYR279      0.2596
    148  O         16.9930   54.9540   40.2630 O.2   279  TYR279     -0.2718
    149  CB        17.6680   53.1900   42.5160 C.3   279  TYR279      0.0548
    150  CG        17.1820   52.2670   43.6070 C.ar  279  TYR279     -0.0200
    151  CD1       15.8530   51.8050   43.6170 C.ar  279  TYR279     -0.0009
    152  CD2       18.0510   51.8080   44.5990 C.ar  279  TYR279     -0.0009
    153  CE1       15.3950   50.9200   44.5990 C.ar  279  TYR279      0.0417
    154  CE2       17.6050   50.9230   45.5900 C.ar  279  TYR279      0.0417
    155  CZ        16.2710   50.4970   45.5860 C.ar  279  TYR279      0.1957
    156  OH        15.8410   49.6190   46.5490 O.3   279  TYR279     -0.2866
    157  N         18.1850   53.5040   39.0260 N.am  280  SER280     -0.1938
    158  CA        18.5190   54.4830   37.9610 C.3   280  SER280      0.2055
    159  C         17.3200   55.1900   37.3310 C.2   280  SER280      0.2643
    160  O         16.2780   54.5710   37.0540 O.2   280  SER280     -0.2714
    161  CB        19.3300   53.7870   36.8470 C.3   280  SER280      0.2130
    162  OG        19.5520   54.6640   35.7430 O.3   280  SER280     -0.2179
    163  N         17.4820   56.4920   37.0890 N.am  281  TRP281     -0.1973
    164  CA        16.4870   57.3220   36.3970 C.3   281  TRP281      0.1640
    165  C         16.2040   56.8990   34.9400 C.2   281  TRP281      0.2290
    166  O         15.1740   57.2880   34.3610 O.2   281  TRP281     -0.2864
    167  CB        16.9620   58.7870   36.3760 C.3   281  TRP281      0.0576
    168  CG        18.1130   59.0240   35.4130 C.ar  281  TRP281      0.0006
    169  CD1       19.4290   58.6910   35.6050 C.ar  281  TRP281      0.0946
    170  CD2       18.0470   59.6370   34.1210 C.ar  281  TRP281      0.0152
    171  NE1       20.1830   59.0640   34.5230 N.ar  281  TRP281     -0.2442
    172  CE2       19.3660   59.6420   33.5930 C.ar  281  TRP281      0.0810
    173  CE3       17.0020   60.1810   33.3520 C.ar  281  TRP281      0.0012
    174  CZ2       19.6740   60.1670   32.3270 C.ar  281  TRP281      0.0191
    175  CZ3       17.3090   60.7100   32.0920 C.ar  281  TRP281      0.0001
    176  CH2       18.6410   60.6980   31.5940 C.ar  281  TRP281      0.0015
    177  N         12.7530   55.0490   33.1480 N.3   284  ASP284     -0.1225
    178  CA        11.5030   55.8000   33.1690 C.3   284  ASP284      0.1805
    179  C         11.4450   56.8870   32.1080 C.2   284  ASP284      0.2597
    180  O         10.3710   57.2160   31.5920 O.2   284  ASP284     -0.2718
    181  CB        11.2620   56.3750   34.5630 C.3   284  ASP284      0.1424
    182  CG        10.4870   55.4280   35.4410 C.2   284  ASP284      0.3668
    183  OD1        9.2630   55.2990   35.2300 O.co2 284  ASP284     -0.2456
    184  OD2       11.0770   54.8130   36.3470 O.co2 284  ASP284     -0.2456
    185  N         12.6040   57.4400   31.7820 N.am  285  VAL285     -0.1980
    186  CA        12.7160   58.4640   30.7690 C.3   285  VAL285      0.1595
    187  C         12.8630   57.8370   29.3740 C.2   285  VAL285      0.2287
    188  O         12.2440   58.3040   28.4220 O.2   285  VAL285     -0.2864
    189  CB        13.8900   59.4130   31.0860 C.3   285  VAL285      0.0276
    190  CG1       14.1940   60.3340   29.9020 C.3   285  VAL285      0.0022
    191  CG2       13.5790   60.2290   32.3390 C.3   285  VAL285      0.0022
@<TRIPOS>BOND
     1   100    98   ar
     2   100   101   ar
     3    94    93    2
     4   102   101    1
     5    98    96   ar
     6    93    92    1
     7   115   114    2
     8   101    99   ar
     9   188   187    2
    10   114   113    1
    11    96    95    1
    12    96    97   ar
    13   187   186    1
    14    99    97   ar
    15    92    95    1
    16    92    91    1
    17   190   189    1
    18   113   112    1
    19   113   116    1
    20   116   117    1
    21   186   189    1
    22   186   185    1
    23    85    84    2
    24   189   191    1
    25    84    83    1
    26   180   179    2
    27   176   175   ar
    28   176   174   ar
    29   185   179   am
    30    83    86    1
    31    83    82    1
    32    86    87    1
    33   175   173   ar
    34   117   119   ar
    35   117   118   ar
    36   179   178    1
    37   174   172   ar
    38    89    88   ar
    39    87    88    1
    40   103   104    1
    41   105   104    1
    42   105   106    2
    43   119   121   ar
    44    88    90   ar
    45   107   104    1
    46   107   108    1
    47   110   109    2
    48   118   120   ar
    49   177   178    1
    50   178   181    1
    51    82    76   am
    52   109   111   am
    53   109   108    1
    54   173   170   ar
    55   172   170   ar
    56   172   171   ar
    57   121   120   ar
    58   170   168   ar
    59    77    76    2
    60    76    75    1
    61   166   165    2
    62   171   169   ar
    63   181   182    1
    64    53    51   ar
    65    53    54   ar
    66   125   124    2
    67   165   164    1
    68    63    64    1
    69    63    60    1
    70   183   182   ar
    71   168   169   ar
    72   168   167    1
    73    51    50   ar
    74    59    60    1
    75   182   184   ar
    76   124   123    1
    77    60    61    1
    78    80    79    2
    79    56    54   ar
    80    56    58   ar
    81    75    74    1
    82    75    78    1
    83   162   161    1
    84    54    52   ar
    85   129   128   ar
    86   126   123    1
    87   126   127    1
    88    79    81   am
    89    79    78    1
    90   167   164    1
    91   164   163    1
    92   122   123    1
    93   128   127    1
    94   128   130   ar
    95    50    52   ar
    96    50    49    1
    97    47    46    1
    98    47    48    2
    99    58    57   ar
   100   161   158    1
   101    52    55   ar
   102    61    65   am
   103    61    62    2
   104   160   159    2
   105   163   159   am
   106    65    66    1
   107    46    49    1
   108    46    45    1
   109    73    71   am
   110   159   158    1
   111   135   136    1
   112   135   132    1
   113   137   136   ar
   114   137   139   ar
   115   158   157    1
   116    57    55   ar
   117   136   138   ar
   118    70    71    1
   119    70    69    1
   120    66    69    1
   121    66    67    1
   122   139   140   ar
   123    71    72    2
   124   131   132    1
   125   134   133    2
   126   132   133    1
   127   138   140   ar
   128   138   141   ar
   129   157   147   am
   130   140   142   ar
   131    43    44   ar
   132    43    41   ar
   133    67    68    2
   134   141   143   ar
   135    44    42   ar
   136   142   144   ar
   137    41    40   ar
   138   147   148    2
   139   147   146    1
   140   143   144   ar
   141    26    25    1
   142     9     7   ar
   143   145   146    1
   144    25    24    1
   145    42    40   ar
   146   146   149    1
   147    40    39    1
   148    24    23    1
   149     7     6    1
   150     7     8   ar
   151    16    15    2
   152     6     5    1
   153     4     3    2
   154    23    22    1
   155   149   150    1
   156    39    36    1
   157    17    15   am
   158    15    14    1
   159    34    32   ar
   160    36    37    1
   161    36    35    1
   162     3     2    1
   163     3    10   am
   164    22    19    1
   165     5     2    1
   166    32    31    1
   167    32    33   ar
   168     2     1    1
   169   150   151   ar
   170   150   152   ar
   171   151   153   ar
   172    37    38    2
   173    31    28    1
   174    14    11    1
   175    27    28    1
   176    19    20    1
   177    19    18    1
   178    11    10    1
   179    11    12    1
   180   153   155   ar
   181   152   154   ar
   182    28    29    1
   183    20    21    2
   184    13    12    2
   185   155   154   ar
   186   155   156    1
   187    29    30    2
