@<TRIPOS>MOLECULE
tmp/3cuiA00.pdb
 195 189 0 0 0
SMALL
GASTEIGER

@<TRIPOS>ATOM
      1  N         20.8830   62.8340   44.4730 N.3    43  GLU43      -0.1231
      2  CA        20.1820   62.6150   43.2140 C.3    43  GLU43       0.1699
      3  C         19.0100   63.5900   43.0340 C.2    43  GLU43       0.2592
      4  O         18.7750   64.0720   41.9170 O.2    43  GLU43      -0.2718
      5  CB        19.6880   61.1620   43.1200 C.3    43  GLU43       0.0402
      6  CG        19.1510   60.8050   41.7320 C.3    43  GLU43       0.1161
      7  CD        18.5460   59.4170   41.6530 C.2    43  GLU43       0.3649
      8  OE1       18.3130   58.7980   42.7180 O.co2  43  GLU43      -0.2457
      9  OE2       18.2720   58.9720   40.5140 O.co2  43  GLU43      -0.2457
     10  N         18.2900   63.8520   44.1310 N.am   44  ASN44      -0.1974
     11  CA        17.0840   64.6810   44.1040 C.3    44  ASN44       0.1688
     12  C         16.9110   65.6150   45.3090 C.2    44  ASN44       0.2292
     13  O         16.2240   66.6240   45.1980 O.2    44  ASN44      -0.2864
     14  CB        15.8270   63.7940   43.9800 C.3    44  ASN44       0.1181
     15  CG        15.6390   63.2640   42.5770 C.2    44  ASN44       0.2629
     16  OD1       15.4330   64.0400   41.6330 O.2    44  ASN44      -0.2716
     17  ND2       15.6690   61.9400   42.4280 N.am   44  ASN44      -0.0877
     18  N         17.4140   69.5710   45.0650 N.3    47  LYS47      -0.1245
     19  CA        16.7740   70.2980   43.9710 C.3    47  LYS47       0.1561
     20  C         15.7190   71.2390   44.5360 C.2    47  LYS47       0.2260
     21  O         15.3450   71.1630   45.7260 O.2    47  LYS47      -0.2867
     22  CB        16.1460   69.3220   42.9680 C.3    47  LYS47       0.0271
     23  CG        17.1800   68.5660   42.1600 C.3    47  LYS47       0.0035
     24  CD        16.5780   67.3970   41.3810 C.3    47  LYS47       0.0206
     25  CE        17.6350   66.7040   40.5220 C.3    47  LYS47       0.1093
     26  NZ        17.0970   65.4760   39.7910 N.3    47  LYS47      -0.1314
     27  N         12.4200   71.6240   43.9560 N.3    49  ASP49      -0.1239
     28  CA        11.1850   70.9690   44.4450 C.3    49  ASP49       0.1674
     29  C         11.3470   70.3310   45.8450 C.2    49  ASP49       0.2266
     30  O         10.4340   70.3870   46.6710 O.2    49  ASP49      -0.2867
     31  CB        10.6040   69.9690   43.4200 C.3    49  ASP49       0.1410
     32  CG        11.5450   68.8050   43.0890 C.2    49  ASP49       0.3668
     33  OD1       12.7460   68.8570   43.4380 O.co2  49  ASP49      -0.2456
     34  OD2       11.0640   67.8380   42.4360 O.co2  49  ASP49      -0.2456
     35  N         23.7540   69.6330   44.2160 N.3    80  HIS80      -0.1241
     36  CA        23.0300   69.6070   42.9440 C.3    80  HIS80       0.1621
     37  C         21.5650   69.8720   43.2700 C.2    80  HIS80       0.2264
     38  O         20.9970   69.1030   44.0360 O.2    80  HIS80      -0.2867
     39  CB        23.2030   68.1970   42.3330 C.3    80  HIS80       0.0745
     40  CG        22.4740   67.9850   41.0460 C.ar   80  HIS80       0.0817
     41  ND1       22.9130   68.5130   39.8480 N.ar   80  HIS80      -0.2268
     42  CD2       21.3620   67.2640   40.7590 C.ar   80  HIS80       0.1154
     43  CE1       22.0780   68.1520   38.8840 C.ar   80  HIS80       0.1986
     44  NE2       21.1330   67.3890   39.4090 N.ar   80  HIS80      -0.2212
     45  N         17.6550   75.3680   37.9170 N.3    84  TRP84      -0.1241
     46  CA        17.3890   74.3600   36.8900 C.3    84  TRP84       0.1605
     47  C         15.9390   74.4880   36.4600 C.2    84  TRP84       0.2264
     48  O         15.0550   74.6410   37.3070 O.2    84  TRP84      -0.2867
     49  CB        17.6010   72.9690   37.4730 C.3    84  TRP84       0.0550
     50  CG        17.5450   71.8300   36.4860 C.ar   84  TRP84       0.0003
     51  CD1       17.8880   71.8590   35.1670 C.ar   84  TRP84       0.0946
     52  CD2       17.1890   70.4720   36.7820 C.ar   84  TRP84       0.0152
     53  NE1       17.7390   70.6040   34.6080 N.ar   84  TRP84      -0.2442
     54  CE2       17.3280   69.7330   35.5870 C.ar   84  TRP84       0.0810
     55  CE3       16.7240   69.8220   37.9380 C.ar   84  TRP84       0.0012
     56  CZ2       17.0420   68.3680   35.5160 C.ar   84  TRP84       0.0191
     57  CZ3       16.4400   68.4740   37.8680 C.ar   84  TRP84       0.0001
     58  CH2       16.5910   67.7590   36.6590 C.ar   84  TRP84       0.0015
     59  N         13.9910   72.1970   35.3090 N.3    86  SER86      -0.1202
     60  CA        13.2050   71.0110   35.6340 C.3    86  SER86       0.2020
     61  C         13.0260   70.8850   37.1490 C.2    86  SER86       0.2618
     62  O         13.8090   71.4330   37.9150 O.2    86  SER86      -0.2717
     63  CB        13.8940   69.7690   35.0690 C.3    86  SER86       0.2103
     64  OG        13.0160   68.6670   35.0930 O.3    86  SER86      -0.2182
     65  N         12.0050   70.1560   37.5740 N.am   87  GLN87      -0.1979
     66  CA        11.7320   69.9690   39.0120 C.3    87  GLN87       0.1601
     67  C         11.6350   71.3110   39.7310 C.2    87  GLN87       0.2287
     68  O         12.0920   71.4790   40.8810 O.2    87  GLN87      -0.2864
     69  CB        12.7590   69.0090   39.6390 C.3    87  GLN87       0.0394
     70  CG        12.4680   67.5770   39.1960 C.3    87  GLN87       0.0908
     71  CD        13.4410   66.5950   39.7380 C.2    87  GLN87       0.2608
     72  OE1       14.3500   66.1410   39.0170 O.2    87  GLN87      -0.2717
     73  NE2       13.2820   66.2570   41.0240 N.am   87  GLN87      -0.0878
     74  N         21.9660   72.8320   32.9540 N.3   127  GLU127     -0.1245
     75  CA        21.2380   72.6260   31.6690 C.3   127  GLU127      0.1567
     76  C         20.7250   73.9180   31.0270 C.2   127  GLU127      0.2260
     77  O         19.5740   74.0110   30.5650 O.2   127  GLU127     -0.2867
     78  CB        20.1220   71.5910   31.8550 C.3   127  GLU127      0.0388
     79  CG        20.6710   70.2120   32.2260 C.3   127  GLU127      0.1160
     80  CD        19.5970   69.1540   32.4200 C.2   127  GLU127      0.3649
     81  OE1       18.4110   69.3930   32.0990 O.co2 127  GLU127     -0.2457
     82  OE2       19.9440   68.0650   32.9370 O.co2 127  GLU127     -0.2457
     83  N         20.8140   71.7420   22.6670 N.3   131  ASP131     -0.1239
     84  CA        21.4190   70.9060   21.6470 C.3   131  ASP131      0.1674
     85  C         21.3520   71.7250   20.3650 C.2   131  ASP131      0.2266
     86  O         20.3010   72.3100   20.0440 O.2   131  ASP131     -0.2867
     87  CB        20.6600   69.5790   21.4730 C.3   131  ASP131      0.1410
     88  CG        20.6900   68.6830   22.7220 C.2   131  ASP131      0.3668
     89  OD1       21.4160   68.9600   23.7120 O.co2 131  ASP131     -0.2456
     90  OD2       19.9590   67.6730   22.7080 O.co2 131  ASP131     -0.2456
     91  N         24.5870   68.5370   29.7870 N.3   171  TYR171     -0.1227
     92  CA        24.7010   67.2660   29.0740 C.3   171  TYR171      0.1736
     93  C         24.7910   67.4950   27.5640 C.2   171  TYR171      0.2595
     94  O         24.5170   68.5920   27.0680 O.2   171  TYR171     -0.2718
     95  CB        23.5050   66.3570   29.3970 C.3   171  TYR171      0.0548
     96  CG        22.1850   66.8350   28.8230 C.ar  171  TYR171     -0.0200
     97  CD1       21.3840   67.7310   29.5340 C.ar  171  TYR171     -0.0009
     98  CD2       21.7410   66.4050   27.5540 C.ar  171  TYR171     -0.0009
     99  CE1       20.1590   68.1810   29.0170 C.ar  171  TYR171      0.0417
    100  CE2       20.5220   66.8640   27.0320 C.ar  171  TYR171      0.0417
    101  CZ        19.7450   67.7640   27.7700 C.ar  171  TYR171      0.1957
    102  OH        18.5220   68.2240   27.2860 O.3   171  TYR171     -0.2866
    103  N         25.1650   66.4410   26.8380 N.am  172  ASN172     -0.1974
    104  CA        25.4490   66.5420   25.3930 C.3   172  ASN172      0.1688
    105  C         26.4970   67.6100   25.0960 C.2   172  ASN172      0.2292
    106  O         26.4930   68.2170   24.0230 O.2   172  ASN172     -0.2864
    107  CB        24.1680   66.7900   24.5790 C.3   172  ASN172      0.1181
    108  CG        23.2880   65.5620   24.4760 C.2   172  ASN172      0.2629
    109  OD1       23.6960   64.4490   24.8160 O.2   172  ASN172     -0.2716
    110  ND2       22.0590   65.7600   24.0090 N.am  172  ASN172     -0.0877
    111  N         27.7710   66.0380   32.2720 N.3   203  GLN203     -0.1245
    112  CA        26.9010   65.0080   32.8470 C.3   203  GLN203      0.1566
    113  C         27.2450   63.6050   32.3720 C.2   203  GLN203      0.2260
    114  O         27.2670   62.6610   33.1720 O.2   203  GLN203     -0.2867
    115  CB        25.4270   65.3060   32.5640 C.3   203  GLN203      0.0367
    116  CG        24.8530   66.5110   33.3210 C.3   203  GLN203      0.0905
    117  CD        23.3630   66.6590   33.0810 C.2   203  GLN203      0.2608
    118  OE1       22.7020   65.7070   32.6580 O.2   203  GLN203     -0.2717
    119  NE2       22.8270   67.8570   33.3330 N.am  203  GLN203     -0.0878
    120  N         25.6150   61.4460   30.3330 N.3   205  HIS205     -0.1241
    121  CA        24.5770   60.4400   30.1110 C.3   205  HIS205      0.1621
    122  C         24.7550   59.8990   28.6940 C.2   205  HIS205      0.2264
    123  O         24.2680   60.4970   27.7180 O.2   205  HIS205     -0.2867
    124  CB        23.1750   61.0300   30.3160 C.3   205  HIS205      0.0745
    125  CG        22.8950   61.4230   31.7340 C.ar  205  HIS205      0.0817
    126  ND1       22.8410   60.4980   32.7540 N.ar  205  HIS205     -0.2268
    127  CD2       22.6940   62.6340   32.3100 C.ar  205  HIS205      0.1154
    128  CE1       22.5870   61.1170   33.8960 C.ar  205  HIS205      0.1986
    129  NE2       22.5080   62.4170   33.6570 N.ar  205  HIS205     -0.2212
    130  N         27.4640   62.9740   36.0720 N.3   233  GLU233     -0.1245
    131  CA        26.2470   62.1340   36.1300 C.3   233  GLU233      0.1567
    132  C         26.4020   60.9240   35.2300 C.2   233  GLU233      0.2260
    133  O         25.4780   60.5500   34.5140 O.2   233  GLU233     -0.2867
    134  CB        25.0010   62.9240   35.7240 C.3   233  GLU233      0.0388
    135  CG        24.8170   64.2680   36.4820 C.3   233  GLU233      0.1160
    136  CD        23.4720   64.9430   36.2480 C.2   233  GLU233      0.3649
    137  OE1       22.5470   64.3020   35.7070 O.co2 233  GLU233     -0.2457
    138  OE2       23.3630   66.1660   36.5720 O.co2 233  GLU233     -0.2457
    139  N         23.8650   53.7750   28.9140 N.3   237  ARG237     -0.1245
    140  CA        22.6470   52.9600   28.7810 C.3   237  ARG237      0.1563
    141  C         22.6550   52.0810   27.5360 C.2   237  ARG237      0.2260
    142  O         23.2440   52.4450   26.5040 O.2   237  ARG237     -0.2867
    143  CB        21.4020   53.8490   28.7990 C.3   237  ARG237      0.0307
    144  CG        21.2990   54.8220   27.6260 C.3   237  ARG237      0.0489
    145  CD        20.1000   55.7130   27.8270 C.3   237  ARG237      0.2205
    146  NE        19.8120   56.5920   26.6870 N.pl3 237  ARG237     -0.0865
    147  CZ        20.2500   57.8450   26.5690 C.cat 237  ARG237      0.5346
    148  NH1       21.0150   58.3800   27.5130 N.pl3 237  ARG237      0.1354
    149  NH2       19.9280   58.5680   25.4970 N.pl3 237  ARG237      0.1354
    150  N         25.7470   58.2060   38.1290 N.3   273  TRP273     -0.1241
    151  CA        24.3920   58.6310   38.4790 C.3   273  TRP273      0.1605
    152  C         23.5700   57.4930   39.1020 C.2   273  TRP273      0.2264
    153  O         22.5000   57.0910   38.5930 O.2   273  TRP273     -0.2867
    154  CB        23.6900   59.3160   37.2930 C.3   273  TRP273      0.0550
    155  CG        22.6160   60.2370   37.7700 C.ar  273  TRP273      0.0003
    156  CD1       21.2710   60.0830   37.5910 C.ar  273  TRP273      0.0946
    157  CD2       22.7870   61.4370   38.5480 C.ar  273  TRP273      0.0152
    158  NE1       20.5960   61.1220   38.1900 N.ar  273  TRP273     -0.2442
    159  CE2       21.4980   61.9580   38.7930 C.ar  273  TRP273      0.0810
    160  CE3       23.9040   62.1070   39.0720 C.ar  273  TRP273      0.0012
    161  CZ2       21.2890   63.1430   39.5240 C.ar  273  TRP273      0.0191
    162  CZ3       23.6970   63.2880   39.7950 C.ar  273  TRP273      0.0001
    163  CH2       22.3870   63.7780   40.0120 C.ar  273  TRP273      0.0015
    164  N         17.3850   55.9930   36.9990 N.3   281  TRP281     -0.1241
    165  CA        16.3690   56.8090   36.3380 C.3   281  TRP281      0.1605
    166  C         16.0960   56.4280   34.8730 C.2   281  TRP281      0.2264
    167  O         15.0380   56.7670   34.3390 O.2   281  TRP281     -0.2867
    168  CB        16.7950   58.2900   36.3620 C.3   281  TRP281      0.0550
    169  CG        17.9010   58.6000   35.3810 C.ar  281  TRP281      0.0003
    170  CD1       19.1930   58.1640   35.4340 C.ar  281  TRP281      0.0946
    171  CD2       17.7970   59.4040   34.1930 C.ar  281  TRP281      0.0152
    172  NE1       19.9030   58.6530   34.3560 N.ar  281  TRP281     -0.2442
    173  CE2       19.0660   59.4140   33.5820 C.ar  281  TRP281      0.0810
    174  CE3       16.7490   60.1170   33.5920 C.ar  281  TRP281      0.0012
    175  CZ2       19.3260   60.1010   32.3810 C.ar  281  TRP281      0.0191
    176  CZ3       17.0030   60.8070   32.3940 C.ar  281  TRP281      0.0001
    177  CH2       18.2770   60.7890   31.8020 C.ar  281  TRP281      0.0015
    178  N         12.5450   56.9780   31.6290 N.3   285  VAL285     -0.1231
    179  CA        12.6030   58.0200   30.6070 C.3   285  VAL285      0.1692
    180  C         12.7800   57.4540   29.1920 C.2   285  VAL285      0.2592
    181  O         12.2200   57.9960   28.2340 O.2   285  VAL285     -0.2718
    182  CB        13.6950   59.0750   30.9330 C.3   285  VAL285      0.0266
    183  CG1       13.9120   60.0410   29.7570 C.3   285  VAL285      0.0020
    184  CG2       13.3260   59.8360   32.1950 C.3   285  VAL285      0.0020
    185  N         13.5390   56.3660   29.0750 N.am  286  PHE286     -0.1976
    186  CA        13.8800   55.7500   27.7890 C.3   286  PHE286      0.1639
    187  C         13.3400   54.3230   27.7290 C.2   286  PHE286      0.2290
    188  O         14.0040   53.3980   28.1900 O.2   286  PHE286     -0.2864
    189  CB        15.4020   55.7120   27.6020 C.3   286  PHE286      0.0560
    190  CG        16.0590   57.0530   27.7140 C.ar  286  PHE286     -0.0200
    191  CD1       16.1110   57.9070   26.6200 C.ar  286  PHE286     -0.0042
    192  CD2       16.6310   57.4640   28.9220 C.ar  286  PHE286     -0.0042
    193  CE1       16.7160   59.1650   26.7260 C.ar  286  PHE286     -0.0003
    194  CE2       17.2400   58.7120   29.0340 C.ar  286  PHE286     -0.0003
    195  CZ        17.2800   59.5640   27.9330 C.ar  286  PHE286     -0.0000
@<TRIPOS>BOND
     1    86    85    2
     2    85    84    1
     3    87    84    1
     4    87    88    1
     5    84    83    1
     6    90    88   ar
     7    88    89   ar
     8   110   108   am
     9   106   105    2
    10   108   107    1
    11   108   109    2
    12   107   104    1
    13   105   104    1
    14   104   103    1
    15   149   147    1
    16   142   141    2
    17   147   146    2
    18   147   148    1
    19   191   193   ar
    20   191   190   ar
    21   146   145    1
    22   193   195   ar
    23   103    93   am
    24   100    98   ar
    25   100   101   ar
    26    94    93    2
    27   102   101    1
    28   141   140    1
    29    98    96   ar
    30    93    92    1
    31   189   190    1
    32   189   186    1
    33   144   145    1
    34   144   143    1
    35   190   192   ar
    36   123   122    2
    37   187   186    1
    38   187   188    2
    39   101    99   ar
    40   186   185    1
    41   195   194   ar
    42   181   180    2
    43   122   121    1
    44   140   143    1
    45   140   139    1
    46    96    95    1
    47    96    97   ar
    48   192   194   ar
    49    99    97   ar
    50    92    95    1
    51    92    91    1
    52   185   180   am
    53   180   179    1
    54   183   182    1
    55   121   124    1
    56   121   120    1
    57   124   125    1
    58    77    76    2
    59   179   182    1
    60   179   178    1
    61   182   184    1
    62    76    75    1
    63    75    78    1
    64    75    74    1
    65   125   127   ar
    66   125   126   ar
    67   177   175   ar
    68   177   176   ar
    69    78    79    1
    70    81    80   ar
    71    79    80    1
    72   111   112    1
    73   127   129   ar
    74   113   112    1
    75   113   114    2
    76   175   173   ar
    77   176   174   ar
    78    80    82   ar
    79   115   112    1
    80   115   116    1
    81   118   117    2
    82   126   128   ar
    83   117   116    1
    84   117   119   am
    85   173   171   ar
    86   173   172   ar
    87   174   171   ar
    88   129   128   ar
    89   171   169   ar
    90   167   166    2
    91   172   170   ar
    92   133   132    2
    93    53    51   ar
    94    53    54   ar
    95   166   165    1
    96    63    64    1
    97    63    60    1
    98    51    50   ar
    99   132   131    1
   100    59    60    1
   101   169   170   ar
   102   169   168    1
   103    56    54   ar
   104    56    58   ar
   105    54    52   ar
   106    60    61    1
   107   137   136   ar
   108   134   131    1
   109   134   135    1
   110   130   131    1
   111   136   135    1
   112   136   138   ar
   113   165   168    1
   114   165   164    1
   115    47    46    1
   116    47    48    2
   117    50    52   ar
   118    50    49    1
   119    58    57   ar
   120    52    55   ar
   121    46    49    1
   122    46    45    1
   123    61    65   am
   124    61    62    2
   125   154   155    1
   126   154   151    1
   127    65    66    1
   128   156   155   ar
   129   156   158   ar
   130   155   157   ar
   131    57    55   ar
   132   150   151    1
   133   158   159   ar
   134   151   152    1
   135   157   159   ar
   136   157   160   ar
   137   153   152    2
   138   159   161   ar
   139    43    44   ar
   140    43    41   ar
   141    66    69    1
   142    66    67    1
   143    72    71    2
   144   160   162   ar
   145    70    69    1
   146    70    71    1
   147    44    42   ar
   148   161   163   ar
   149    67    68    2
   150    71    73   am
   151    26    25    1
   152   162   163   ar
   153    41    40   ar
   154     9     7   ar
   155    25    24    1
   156    42    40   ar
   157    40    39    1
   158    24    23    1
   159    16    15    2
   160     7     6    1
   161     7     8   ar
   162     6     5    1
   163     4     3    2
   164    23    22    1
   165    39    36    1
   166    17    15   am
   167    34    32   ar
   168    15    14    1
   169    36    37    1
   170    36    35    1
   171    22    19    1
   172     3     2    1
   173     3    10   am
   174    32    31    1
   175    32    33   ar
   176     5     2    1
   177     2     1    1
   178    37    38    2
   179    31    28    1
   180    27    28    1
   181    19    20    1
   182    19    18    1
   183    14    11    1
   184    11    10    1
   185    11    12    1
   186    28    29    1
   187    20    21    2
   188    13    12    2
   189    29    30    2
