@<TRIPOS>MOLECULE
tmp/3cujA00.pdb
 231 223 0 0 0
SMALL
GASTEIGER

@<TRIPOS>ATOM
      1  N         20.7670   62.6420   44.5190 N.3    43  GLU43      -0.1231
      2  CA        20.0910   62.3920   43.2530 C.3    43  GLU43       0.1699
      3  C         18.9080   63.3700   43.0440 C.2    43  GLU43       0.2592
      4  O         18.6870   63.8430   41.9110 O.2    43  GLU43      -0.2718
      5  CB        19.6230   60.9350   43.1600 C.3    43  GLU43       0.0402
      6  CG        18.9890   60.5900   41.8110 C.3    43  GLU43       0.1161
      7  CD        18.4080   59.1750   41.7670 C.2    43  GLU43       0.3649
      8  OE1       18.1680   58.5660   42.8390 O.co2  43  GLU43      -0.2457
      9  OE2       18.1850   58.6960   40.6400 O.co2  43  GLU43      -0.2457
     10  N         18.1740   63.6520   44.1300 N.am   44  ASN44      -0.1974
     11  CA        16.9840   64.5090   44.0910 C.3    44  ASN44       0.1688
     12  C         16.8270   65.4430   45.2840 C.2    44  ASN44       0.2292
     13  O         16.1810   66.4860   45.1610 O.2    44  ASN44      -0.2864
     14  CB        15.7050   63.6670   43.9750 C.3    44  ASN44       0.1181
     15  CG        15.5270   63.0840   42.6050 C.2    44  ASN44       0.2629
     16  OD1       15.3700   63.8150   41.6240 O.2    44  ASN44      -0.2716
     17  ND2       15.5550   61.7550   42.5140 N.am   44  ASN44      -0.0877
     18  N         17.3730   69.3580   45.0510 N.3    47  LYS47      -0.1245
     19  CA        16.7390   70.0810   43.9470 C.3    47  LYS47       0.1561
     20  C         15.6830   71.0430   44.4960 C.2    47  LYS47       0.2260
     21  O         15.3170   70.9850   45.6740 O.2    47  LYS47      -0.2867
     22  CB        16.1480   69.1130   42.9150 C.3    47  LYS47       0.0271
     23  CG        17.2150   68.3030   42.2020 C.3    47  LYS47       0.0035
     24  CD        16.5730   67.1430   41.4270 C.3    47  LYS47       0.0206
     25  CE        17.6240   66.4700   40.5530 C.3    47  LYS47       0.1093
     26  NZ        17.0160   65.3440   39.7710 N.3    47  LYS47      -0.1314
     27  N         12.4140   71.4270   43.9140 N.3    49  ASP49      -0.1239
     28  CA        11.1630   70.7750   44.3840 C.3    49  ASP49       0.1674
     29  C         11.3140   70.1380   45.7800 C.2    49  ASP49       0.2266
     30  O         10.3920   70.2030   46.6090 O.2    49  ASP49      -0.2867
     31  CB        10.6000   69.7750   43.3580 C.3    49  ASP49       0.1410
     32  CG        11.5260   68.5950   43.0730 C.2    49  ASP49       0.3668
     33  OD1       12.7360   68.6220   43.4140 O.co2  49  ASP49      -0.2456
     34  OD2       11.0180   67.6210   42.4620 O.co2  49  ASP49      -0.2456
     35  N         23.7230   69.4310   44.2020 N.3    80  HIS80      -0.1241
     36  CA        22.9930   69.3900   42.9310 C.3    80  HIS80       0.1621
     37  C         21.5220   69.6520   43.2780 C.2    80  HIS80       0.2264
     38  O         20.9540   68.8880   44.0410 O.2    80  HIS80      -0.2867
     39  CB        23.1600   67.9850   42.3080 C.3    80  HIS80       0.0745
     40  CG        22.4490   67.8050   41.0050 C.ar   80  HIS80       0.0817
     41  ND1       22.9450   68.3020   39.8200 N.ar   80  HIS80      -0.2268
     42  CD2       21.2910   67.1700   40.6960 C.ar   80  HIS80       0.1154
     43  CE1       22.1180   67.9890   38.8360 C.ar   80  HIS80       0.1986
     44  NE2       21.1170   67.2890   39.3390 N.ar   80  HIS80      -0.2212
     45  N         17.6770   75.1160   37.9320 N.3    84  TRP84      -0.1241
     46  CA        17.3920   74.1240   36.9060 C.3    84  TRP84       0.1605
     47  C         15.9310   74.2440   36.4670 C.2    84  TRP84       0.2264
     48  O         15.0370   74.3930   37.3060 O.2    84  TRP84      -0.2867
     49  CB        17.6250   72.7350   37.4840 C.3    84  TRP84       0.0550
     50  CG        17.5550   71.5890   36.4940 C.ar   84  TRP84       0.0003
     51  CD1       17.9000   71.6130   35.1670 C.ar   84  TRP84       0.0946
     52  CD2       17.1890   70.2310   36.7930 C.ar   84  TRP84       0.0152
     53  NE1       17.7280   70.3530   34.6110 N.ar   84  TRP84      -0.2442
     54  CE2       17.2750   69.5000   35.5830 C.ar   84  TRP84       0.0810
     55  CE3       16.7200   69.5850   37.9530 C.ar   84  TRP84       0.0012
     56  CZ2       16.9850   68.1230   35.5050 C.ar   84  TRP84       0.0191
     57  CZ3       16.4110   68.2130   37.8820 C.ar   84  TRP84       0.0001
     58  CH2       16.5480   67.5000   36.6500 C.ar   84  TRP84       0.0015
     59  N         13.9700   71.9550   35.2600 N.3    86  SER86      -0.1202
     60  CA        13.1930   70.7640   35.5930 C.3    86  SER86       0.2020
     61  C         13.0190   70.6470   37.1040 C.2    86  SER86       0.2618
     62  O         13.7990   71.2220   37.8660 O.2    86  SER86      -0.2717
     63  CB        13.8920   69.5230   35.0420 C.3    86  SER86       0.2103
     64  OG        13.8930   69.5610   33.6300 O.3    86  SER86      -0.2182
     65  N         12.0000   69.9060   37.5300 N.am   87  GLN87      -0.1979
     66  CA        11.7010   69.7320   38.9680 C.3    87  GLN87       0.1601
     67  C         11.6070   71.0680   39.7000 C.2    87  GLN87       0.2287
     68  O         12.0720   71.2350   40.8500 O.2    87  GLN87      -0.2864
     69  CB        12.6840   68.7410   39.6290 C.3    87  GLN87       0.0394
     70  CG        12.4130   67.2980   39.1870 C.3    87  GLN87       0.0908
     71  CD        13.4250   66.3200   39.7220 C.2    87  GLN87       0.2608
     72  OE1       14.3400   65.9000   38.9960 O.2    87  GLN87      -0.2717
     73  NE2       13.2890   65.9630   41.0090 N.am   87  GLN87      -0.0878
     74  N         21.9920   72.5260   32.9740 N.3   127  GLU127     -0.1245
     75  CA        21.2970   72.3250   31.6780 C.3   127  GLU127      0.1567
     76  C         20.7540   73.6350   31.0650 C.2   127  GLU127      0.2260
     77  O         19.5950   73.6970   30.6170 O.2   127  GLU127     -0.2867
     78  CB        20.1770   71.3020   31.8480 C.3   127  GLU127      0.0388
     79  CG        20.7030   69.9240   32.2810 C.3   127  GLU127      0.1160
     80  CD        19.6200   68.8600   32.4890 C.2   127  GLU127      0.3649
     81  OE1       18.4220   69.0930   32.1550 O.co2 127  GLU127     -0.2457
     82  OE2       20.0030   67.7700   33.0340 O.co2 127  GLU127     -0.2457
     83  N         20.8330   71.3750   22.7460 N.3   131  ASP131     -0.1239
     84  CA        21.4370   70.5370   21.7370 C.3   131  ASP131      0.1674
     85  C         21.3820   71.3460   20.4490 C.2   131  ASP131      0.2266
     86  O         20.3390   71.9280   20.1160 O.2   131  ASP131     -0.2867
     87  CB        20.6690   69.2200   21.5530 C.3   131  ASP131      0.1410
     88  CG        20.6500   68.3530   22.8120 C.2   131  ASP131      0.3668
     89  OD1       21.3220   68.6860   23.8260 O.co2 131  ASP131     -0.2456
     90  OD2       19.9430   67.3140   22.7830 O.co2 131  ASP131     -0.2456
     91  N         18.9320   76.9000   26.0940 N.3   136  ARG136     -0.1245
     92  CA        17.7690   76.0440   26.2520 C.3   136  ARG136      0.1563
     93  C         16.4700   76.7990   25.9720 C.2   136  ARG136      0.2260
     94  O         16.2830   77.9430   26.4250 O.2   136  ARG136     -0.2867
     95  CB        17.7470   75.4460   27.6610 C.3   136  ARG136      0.0307
     96  CG        16.4890   74.6520   27.9650 C.3   136  ARG136      0.0489
     97  CD        16.6500   73.8000   29.2140 C.3   136  ARG136      0.2205
     98  NE        17.5040   72.6240   29.0090 N.pl3 136  ARG136     -0.0865
     99  CZ        17.1120   71.4600   28.4950 C.cat 136  ARG136      0.5346
    100  NH1       15.8580   71.2630   28.0680 N.pl3 136  ARG136      0.1354
    101  NH2       17.9960   70.4760   28.3880 N.pl3 136  ARG136      0.1354
    102  N         24.5990   68.2390   29.8370 N.3   171  TYR171     -0.1227
    103  CA        24.7080   66.9310   29.1670 C.3   171  TYR171      0.1736
    104  C         24.8230   67.1640   27.6750 C.2   171  TYR171      0.2595
    105  O         24.5520   68.2680   27.1940 O.2   171  TYR171     -0.2718
    106  CB        23.4960   66.0420   29.4750 C.3   171  TYR171      0.0548
    107  CG        22.2060   66.5390   28.8920 C.ar  171  TYR171     -0.0200
    108  CD1       21.8170   66.1870   27.5820 C.ar  171  TYR171     -0.0009
    109  CD2       21.3620   67.3720   29.6310 C.ar  171  TYR171     -0.0009
    110  CE1       20.6050   66.6510   27.0410 C.ar  171  TYR171      0.0417
    111  CE2       20.1520   67.8440   29.0970 C.ar  171  TYR171      0.0417
    112  CZ        19.7890   67.4910   27.8010 C.ar  171  TYR171      0.1957
    113  OH        18.5940   67.9490   27.2800 O.3   171  TYR171     -0.2866
    114  N         25.2260   66.1250   26.9350 N.am  172  ASN172     -0.1974
    115  CA        25.4890   66.2570   25.4890 C.3   172  ASN172      0.1688
    116  C         26.5470   67.3170   25.1670 C.2   172  ASN172      0.2292
    117  O         26.5420   67.9110   24.0740 O.2   172  ASN172     -0.2864
    118  CB        24.1980   66.5420   24.7010 C.3   172  ASN172      0.1181
    119  CG        23.3490   65.3070   24.4870 C.2   172  ASN172      0.2629
    120  OD1       23.7760   64.1820   24.7540 O.2   172  ASN172     -0.2716
    121  ND2       22.1310   65.5130   24.0160 N.am  172  ASN172     -0.0877
    122  N         27.7710   65.7930   32.3300 N.3   203  GLN203     -0.1245
    123  CA        26.8870   64.7740   32.8910 C.3   203  GLN203      0.1566
    124  C         27.2400   63.3710   32.3800 C.2   203  GLN203      0.2260
    125  O         27.2830   62.4420   33.1710 O.2   203  GLN203     -0.2867
    126  CB        25.4170   65.0760   32.6150 C.3   203  GLN203      0.0367
    127  CG        24.8850   66.2960   33.3330 C.3   203  GLN203      0.0905
    128  CD        23.3910   66.4670   33.1160 C.2   203  GLN203      0.2608
    129  OE1       22.6960   65.5330   32.6950 O.2   203  GLN203     -0.2717
    130  NE2       22.8940   67.6690   33.3760 N.am  203  GLN203     -0.0878
    131  N         25.5910   61.2250   30.3470 N.3   205  HIS205     -0.1226
    132  CA        24.5330   60.2290   30.1240 C.3   205  HIS205      0.1752
    133  C         24.7450   59.7050   28.7050 C.2   205  HIS205      0.2596
    134  O         24.3290   60.3360   27.7100 O.2   205  HIS205     -0.2718
    135  CB        23.1430   60.8420   30.3070 C.3   205  HIS205      0.0759
    136  CG        22.8560   61.2420   31.7190 C.ar  205  HIS205      0.0818
    137  ND1       22.8060   60.3280   32.7500 N.ar  205  HIS205     -0.2268
    138  CD2       22.6210   62.4550   32.2760 C.ar  205  HIS205      0.1154
    139  CE1       22.5390   60.9600   33.8820 C.ar  205  HIS205      0.1986
    140  NE2       22.4410   62.2550   33.6250 N.ar  205  HIS205     -0.2212
    141  N         25.4340   58.5760   28.6220 N.am  206  LEU206     -0.1966
    142  CA        25.8870   58.0590   27.3400 C.3   206  LEU206      0.1728
    143  C         25.1110   56.8100   26.9610 C.2   206  LEU206      0.2616
    144  O         24.4440   56.1960   27.7940 O.2   206  LEU206     -0.2715
    145  CB        27.3930   57.7520   27.4010 C.3   206  LEU206      0.0311
    146  CG        28.3110   58.9210   27.7890 C.3   206  LEU206      0.0022
    147  CD1       29.7770   58.4930   27.8010 C.3   206  LEU206      0.0001
    148  CD2       28.0940   60.1170   26.8700 C.3   206  LEU206      0.0001
    149  N         25.2150   56.4450   25.6890 N.am  207  ILE207     -0.1977
    150  CA        24.6380   55.1960   25.1870 C.3   207  ILE207      0.1596
    151  C         25.7590   54.2020   24.8950 C.2   207  ILE207      0.2287
    152  O         26.7970   54.5830   24.3380 O.2   207  ILE207     -0.2864
    153  CB        23.8070   55.4630   23.9010 C.3   207  ILE207      0.0276
    154  CG1       22.7180   56.4990   24.1710 C.3   207  ILE207      0.0022
    155  CG2       23.1990   54.1490   23.3880 C.3   207  ILE207      0.0022
    156  CD1       22.0080   56.9620   22.9380 C.3   207  ILE207      0.0001
    157  N         28.7840   54.4710   22.2220 N.3   210  GLN210     -0.1245
    158  CA        28.7670   55.8390   21.6890 C.3   210  GLN210      0.1566
    159  C         29.4690   56.8610   22.6130 C.2   210  GLN210      0.2260
    160  O         28.8800   57.8760   22.9670 O.2   210  GLN210     -0.2867
    161  CB        27.3230   56.2660   21.3560 C.3   210  GLN210      0.0367
    162  CG        26.6160   55.4040   20.2700 C.3   210  GLN210      0.0905
    163  CD        25.2050   55.8740   19.9290 C.2   210  GLN210      0.2608
    164  OE1       24.9730   57.0280   19.5300 O.2   210  GLN210     -0.2717
    165  NE2       24.2550   54.9810   20.0760 N.am  210  GLN210     -0.0878
    166  N         27.4260   62.7600   36.1300 N.3   233  GLU233     -0.1245
    167  CA        26.2310   61.9030   36.1500 C.3   233  GLU233      0.1567
    168  C         26.3820   60.6990   35.2270 C.2   233  GLU233      0.2260
    169  O         25.4600   60.3480   34.5030 O.2   233  GLU233     -0.2867
    170  CB        24.9750   62.7060   35.7790 C.3   233  GLU233      0.0388
    171  CG        24.8090   64.0750   36.5260 C.3   233  GLU233      0.1160
    172  CD        23.4760   64.7720   36.2670 C.2   233  GLU233      0.3649
    173  OE1       22.5240   64.1250   35.7430 O.co2 233  GLU233     -0.2457
    174  OE2       23.3720   65.9900   36.6250 O.co2 233  GLU233     -0.2457
    175  N         23.7990   53.5870   28.9880 N.3   237  ARG237     -0.1245
    176  CA        22.5890   52.7610   28.8680 C.3   237  ARG237      0.1563
    177  C         22.5970   51.8950   27.6150 C.2   237  ARG237      0.2260
    178  O         23.2320   52.2400   26.6030 O.2   237  ARG237     -0.2867
    179  CB        21.3320   53.6330   28.8960 C.3   237  ARG237      0.0307
    180  CG        21.2040   54.6120   27.7250 C.3   237  ARG237      0.0489
    181  CD        20.0040   55.5340   27.9050 C.3   237  ARG237      0.2205
    182  NE        19.8010   56.4100   26.7400 N.pl3 237  ARG237     -0.0865
    183  CZ        20.3090   57.6380   26.6210 C.cat 237  ARG237      0.5346
    184  NH1       21.0550   58.1530   27.5930 N.pl3 237  ARG237      0.1354
    185  NH2       20.0750   58.3520   25.5240 N.pl3 237  ARG237      0.1354
    186  N         25.6780   58.0020   38.0910 N.3   273  TRP273     -0.1241
    187  CA        24.3260   58.4290   38.4380 C.3   273  TRP273      0.1605
    188  C         23.5050   57.2930   39.0830 C.2   273  TRP273      0.2264
    189  O         22.4360   56.8850   38.5810 O.2   273  TRP273     -0.2867
    190  CB        23.6050   59.1090   37.2630 C.3   273  TRP273      0.0550
    191  CG        22.5110   60.0200   37.7690 C.ar  273  TRP273      0.0003
    192  CD1       21.1500   59.8650   37.6070 C.ar  273  TRP273      0.0946
    193  CD2       22.6880   61.2120   38.5560 C.ar  273  TRP273      0.0152
    194  NE1       20.4850   60.8970   38.2410 N.ar  273  TRP273     -0.2442
    195  CE2       21.3960   61.7230   38.8370 C.ar  273  TRP273      0.0810
    196  CE3       23.8120   61.8850   39.0650 C.ar  273  TRP273      0.0012
    197  CZ2       21.1990   62.9010   39.5770 C.ar  273  TRP273      0.0191
    198  CZ3       23.6130   63.0560   39.8270 C.ar  273  TRP273      0.0001
    199  CH2       22.3070   63.5400   40.0630 C.ar  273  TRP273      0.0015
    200  N         17.2850   55.8880   36.9680 N.3   281  TRP281     -0.1241
    201  CA        16.2960   56.6950   36.2670 C.3   281  TRP281      0.1605
    202  C         16.0330   56.2770   34.8160 C.2   281  TRP281      0.2264
    203  O         14.9770   56.5960   34.2580 O.2   281  TRP281     -0.2867
    204  CB        16.7450   58.1680   36.2740 C.3   281  TRP281      0.0550
    205  CG        17.8570   58.4560   35.3250 C.ar  281  TRP281      0.0003
    206  CD1       19.1570   58.0320   35.4070 C.ar  281  TRP281      0.0946
    207  CD2       17.7660   59.2400   34.1260 C.ar  281  TRP281      0.0152
    208  NE1       19.8740   58.5050   34.3290 N.ar  281  TRP281     -0.2442
    209  CE2       19.0410   59.2440   33.5290 C.ar  281  TRP281      0.0810
    210  CE3       16.7170   59.9300   33.4970 C.ar  281  TRP281      0.0012
    211  CZ2       19.3070   59.9270   32.3190 C.ar  281  TRP281      0.0191
    212  CZ3       16.9820   60.6250   32.2950 C.ar  281  TRP281      0.0001
    213  CH2       18.2650   60.6060   31.7260 C.ar  281  TRP281      0.0015
    214  N         12.5210   56.7930   31.5950 N.3   285  VAL285     -0.1231
    215  CA        12.5960   57.8480   30.5880 C.3   285  VAL285      0.1692
    216  C         12.7940   57.2860   29.1700 C.2   285  VAL285      0.2592
    217  O         12.2660   57.8350   28.1930 O.2   285  VAL285     -0.2718
    218  CB        13.6970   58.8800   30.9480 C.3   285  VAL285      0.0266
    219  CG1       13.9190   59.8850   29.8070 C.3   285  VAL285      0.0020
    220  CG2       13.3300   59.6020   32.2450 C.3   285  VAL285      0.0020
    221  N         13.5500   56.1950   29.0780 N.am  286  PHE286     -0.1976
    222  CA        13.8710   55.5270   27.8190 C.3   286  PHE286      0.1639
    223  C         13.2910   54.0960   27.8230 C.2   286  PHE286      0.2290
    224  O         13.9510   53.1540   28.2680 O.2   286  PHE286     -0.2864
    225  CB        15.3910   55.4770   27.6120 C.3   286  PHE286      0.0560
    226  CG        16.0720   56.8160   27.7410 C.ar  286  PHE286     -0.0200
    227  CD1       16.1680   57.6780   26.6450 C.ar  286  PHE286     -0.0042
    228  CD2       16.6380   57.2100   28.9630 C.ar  286  PHE286     -0.0042
    229  CE1       16.8040   58.9360   26.7740 C.ar  286  PHE286     -0.0003
    230  CE2       17.2770   58.4520   29.0990 C.ar  286  PHE286     -0.0003
    231  CZ        17.3640   59.3170   28.0050 C.ar  286  PHE286     -0.0000
@<TRIPOS>BOND
     1   164   163    2
     2   163   165   am
     3   163   162    1
     4    86    85    2
     5   162   161    1
     6    85    84    1
     7   161   158    1
     8    87    84    1
     9    87    88    1
    10   158   157    1
    11   158   159    1
    12    84    83    1
    13   159   160    2
    14    90    88   ar
    15    88    89   ar
    16   156   154    1
    17   155   153    1
    18   153   154    1
    19   153   150    1
    20   121   119   am
    21   117   116    2
    22   152   151    2
    23   119   118    1
    24   119   120    2
    25   118   115    1
    26   151   150    1
    27   116   115    1
    28   150   149    1
    29   115   114    1
    30   185   183    1
    31   149   143   am
    32    93    92    1
    33    93    94    2
    34    91    92    1
    35    92    95    1
    36   178   177    2
    37   183   182    2
    38   183   184    1
    39   227   229   ar
    40   227   226   ar
    41   182   181    1
    42   229   231   ar
    43   148   146    1
    44   114   104   am
    45   143   142    1
    46   143   144    2
    47   110   108   ar
    48   110   112   ar
    49   105   104    2
    50   113   112    1
    51   142   145    1
    52   142   141    1
    53   145   146    1
    54   108   107   ar
    55   225   226    1
    56   225   222    1
    57   177   176    1
    58    95    96    1
    59   104   103    1
    60   134   133    2
    61   180   181    1
    62   180   179    1
    63   226   228   ar
    64   146   147    1
    65   112   111   ar
    66   222   223    1
    67   222   221    1
    68   223   224    2
    69    96    97    1
    70   231   230   ar
    71   100    99    1
    72   217   216    2
    73   101    99    1
    74    99    98    2
    75   141   133   am
    76   133   132    1
    77   176   179    1
    78   176   175    1
    79   107   106    1
    80   107   109   ar
    81   228   230   ar
    82    98    97    1
    83   221   216   am
    84   111   109   ar
    85   103   106    1
    86   103   102    1
    87   216   215    1
    88   219   218    1
    89   132   135    1
    90   132   131    1
    91   135   136    1
    92   215   218    1
    93   215   214    1
    94    77    76    2
    95   218   220    1
    96    76    75    1
    97    75    78    1
    98    75    74    1
    99   136   138   ar
   100   136   137   ar
   101   213   212   ar
   102   213   211   ar
   103    78    79    1
   104    81    80   ar
   105   138   140   ar
   106    79    80    1
   107   212   210   ar
   108   211   209   ar
   109   122   123    1
   110   124   123    1
   111   124   125    2
   112    80    82   ar
   113   126   123    1
   114   126   127    1
   115   129   128    2
   116   137   139   ar
   117   128   127    1
   118   128   130   am
   119   210   207   ar
   120   209   207   ar
   121   209   208   ar
   122   140   139   ar
   123    64    63    1
   124   207   205   ar
   125   203   202    2
   126   208   206   ar
   127   169   168    2
   128    53    51   ar
   129    53    54   ar
   130   202   201    1
   131    63    60    1
   132    51    50   ar
   133   168   167    1
   134    59    60    1
   135   205   206   ar
   136   205   204    1
   137    56    54   ar
   138    56    58   ar
   139    54    52   ar
   140    60    61    1
   141   173   172   ar
   142   170   167    1
   143   170   171    1
   144   166   167    1
   145   201   204    1
   146   201   200    1
   147   172   171    1
   148   172   174   ar
   149    47    46    1
   150    47    48    2
   151    50    52   ar
   152    50    49    1
   153    58    57   ar
   154    52    55   ar
   155    46    49    1
   156    46    45    1
   157    61    65   am
   158    61    62    2
   159   190   191    1
   160   190   187    1
   161    65    66    1
   162   192   191   ar
   163   192   194   ar
   164   191   193   ar
   165    57    55   ar
   166   186   187    1
   167   194   195   ar
   168   187   188    1
   169   193   195   ar
   170   193   196   ar
   171   189   188    2
   172    43    44   ar
   173    43    41   ar
   174   195   197   ar
   175    66    69    1
   176    66    67    1
   177    72    71    2
   178   196   198   ar
   179    70    69    1
   180    70    71    1
   181    44    42   ar
   182   197   199   ar
   183    67    68    2
   184    71    73   am
   185    26    25    1
   186    41    40   ar
   187   198   199   ar
   188    25    24    1
   189     9     7   ar
   190    42    40   ar
   191    40    39    1
   192    24    23    1
   193    16    15    2
   194     7     6    1
   195     7     8   ar
   196     6     5    1
   197     4     3    2
   198    23    22    1
   199    39    36    1
   200    34    32   ar
   201    17    15   am
   202    15    14    1
   203    22    19    1
   204    36    37    1
   205    36    35    1
   206     3     2    1
   207     3    10   am
   208    32    31    1
   209    32    33   ar
   210     5     2    1
   211     2     1    1
   212    37    38    2
   213    31    28    1
   214    27    28    1
   215    19    20    1
   216    19    18    1
   217    14    11    1
   218    11    10    1
   219    11    12    1
   220    28    29    1
   221    20    21    2
   222    13    12    2
   223    29    30    2
