@<TRIPOS>MOLECULE
tmp/3cukC01.pdb
 91 85 0 0 0
SMALL
GASTEIGER

@<TRIPOS>ATOM
      1  N         -9.5240  -19.3500  -20.2100 N.3    51  LEU51      -0.1245
      2  CA        -8.3730  -19.4030  -21.1650 C.3    51  LEU51       0.1561
      3  C         -8.8950  -18.9370  -22.4560 C.2    51  LEU51       0.2260
      4  O        -10.0000  -19.3540  -22.8400 O.2    51  LEU51      -0.2867
      5  CB        -7.8060  -20.8230  -21.3560 C.3    51  LEU51       0.0270
      6  CG        -6.7910  -21.0050  -22.5310 C.3    51  LEU51       0.0019
      7  CD1       -5.3760  -20.5390  -22.2420 C.3    51  LEU51       0.0001
      8  CD2       -6.7270  -22.4750  -22.9340 C.3    51  LEU51       0.0001
      9  N         -9.6000  -19.1120  -26.0670 N.3    53  GLN53      -0.1196
     10  CA        -9.5800  -19.9660  -27.2650 C.3    53  GLN53       0.1782
     11  C        -11.0020  -20.3060  -27.7940 C.2    53  GLN53       0.2306
     12  O        -11.7580  -21.0860  -27.1350 O.2    53  GLN53      -0.2863
     13  CB        -8.7600  -21.2780  -27.0460 C.2    53  GLN53       0.0051
     14  CG        -7.9730  -21.7720  -28.2510 C.2    53  GLN53       0.0584
     15  CD        -7.3200  -23.1920  -28.1000 C.2    53  GLN53       0.2840
     16  OE1       -7.9700  -24.2000  -28.3330 O.2    53  GLN53      -0.2667
     17  NE2       -6.0310  -23.2570  -27.8380 N.am   53  GLN53      -0.0837
     18  N         -4.4810  -28.6180  -24.2150 N.3   210  LEU210     -0.1245
     19  CA        -5.8250  -28.9680  -24.6690 C.3   210  LEU210      0.1561
     20  C         -5.7090  -30.1940  -25.5270 C.2   210  LEU210      0.2260
     21  O         -4.8560  -30.1810  -26.3940 O.2   210  LEU210     -0.2867
     22  CB        -6.3190  -27.8220  -25.5140 C.3   210  LEU210      0.0270
     23  CG        -7.0150  -26.9270  -24.4750 C.3   210  LEU210      0.0019
     24  CD1       -6.0720  -26.2510  -23.3540 C.3   210  LEU210      0.0001
     25  CD2       -7.9690  -25.9580  -25.1330 C.3   210  LEU210      0.0001
     26  N        -15.1260  -30.1170  -26.2270 N.3   219  TYR219     -0.1241
     27  CA       -14.7190  -30.0140  -24.7730 C.3   219  TYR219      0.1605
     28  C        -14.8730  -31.2620  -23.9560 C.2   219  TYR219      0.2264
     29  O        -15.2940  -31.2490  -22.7840 O.2   219  TYR219     -0.2867
     30  CB       -15.4210  -28.8770  -24.0080 C.3   219  TYR219      0.0534
     31  CG       -15.6130  -27.5720  -24.7400 C.ar  219  TYR219     -0.0201
     32  CD1      -14.5600  -26.6770  -24.9000 C.ar  219  TYR219     -0.0009
     33  CD2      -16.8730  -27.2430  -25.2980 C.ar  219  TYR219     -0.0009
     34  CE1      -14.7480  -25.4730  -25.5340 C.ar  219  TYR219      0.0417
     35  CE2      -17.0720  -26.0190  -25.9870 C.ar  219  TYR219      0.0417
     36  CZ       -16.0180  -25.1350  -26.0760 C.ar  219  TYR219      0.1957
     37  OH       -16.1850  -23.9650  -26.7620 O.3   219  TYR219     -0.2866
     38  N         -8.0610  -31.8040  -20.4490 N.3   223  TYR223     -0.1241
     39  CA        -7.3320  -30.5470  -20.5170 C.3   223  TYR223      0.1605
     40  C         -6.8610  -30.0400  -19.0980 C.2   223  TYR223      0.2264
     41  O         -7.4100  -30.3770  -18.0220 O.2   223  TYR223     -0.2867
     42  CB        -8.0700  -29.4830  -21.3790 C.3   223  TYR223      0.0534
     43  CG        -9.4590  -29.0650  -20.8820 C.ar  223  TYR223     -0.0201
     44  CD1       -9.5850  -28.3610  -19.6820 C.ar  223  TYR223     -0.0009
     45  CD2      -10.6450  -29.4000  -21.6050 C.ar  223  TYR223     -0.0009
     46  CE1      -10.8220  -27.9480  -19.1620 C.ar  223  TYR223      0.0417
     47  CE2      -11.9240  -29.0070  -21.1150 C.ar  223  TYR223      0.0417
     48  CZ       -12.0050  -28.2530  -19.8550 C.ar  223  TYR223      0.1957
     49  OH       -13.1930  -27.7890  -19.2840 O.3   223  TYR223     -0.2866
     50  N         -5.3900  -26.5770  -17.5870 N.3   225  ILE225     -0.1245
     51  CA        -5.1860  -25.1700  -17.8270 C.3   225  ILE225      0.1561
     52  C         -4.7820  -24.7710  -16.4220 C.2   225  ILE225      0.2260
     53  O         -5.6590  -24.8450  -15.5330 O.2   225  ILE225     -0.2867
     54  CB        -6.5420  -24.4390  -18.0870 C.3   225  ILE225      0.0252
     55  CG1       -7.1730  -24.7890  -19.4700 C.3   225  ILE225      0.0019
     56  CG2       -6.4480  -22.9460  -17.8840 C.3   225  ILE225      0.0019
     57  CD1       -8.8080  -24.9260  -19.4600 C.3   225  ILE225      0.0001
     58  N        -22.8430  -24.6980  -19.9460 N.3   278  ARG278     -0.1245
     59  CA       -22.3350  -23.8950  -21.0010 C.3   278  ARG278      0.1563
     60  C        -23.6180  -23.4840  -21.8260 C.2   278  ARG278      0.2260
     61  O        -24.4220  -24.3480  -22.1950 O.2   278  ARG278     -0.2867
     62  CB       -21.3340  -24.6820  -21.8450 C.3   278  ARG278      0.0307
     63  CG       -19.8720  -24.8180  -21.3170 C.3   278  ARG278      0.0489
     64  CD       -19.2130  -25.9170  -22.1400 C.3   278  ARG278      0.2205
     65  NE       -18.0520  -26.5430  -21.5180 N.pl3 278  ARG278     -0.0865
     66  CZ       -18.0940  -27.7380  -20.9200 C.cat 278  ARG278      0.5346
     67  NH1      -19.2380  -28.3780  -20.9000 N.pl3 278  ARG278      0.1354
     68  NH2      -17.0090  -28.2800  -20.3330 N.pl3 278  ARG278      0.1354
     69  N        -18.8740  -22.1030  -24.7720 N.3   303  GLY303     -0.1210
     70  CA       -17.6910  -22.4860  -24.0160 C.3   303  GLY303      0.1956
     71  C        -16.5780  -21.5410  -24.3120 C.2   303  GLY303      0.2611
     72  O        -15.4160  -21.9320  -24.2190 O.2   303  GLY303     -0.2717
     73  N        -16.9000  -20.2880  -24.6490 N.am  304  TYR304     -0.1976
     74  CA       -15.8600  -19.3520  -25.0520 C.3   304  TYR304      0.1639
     75  C        -16.3990  -17.9920  -24.7760 C.2   304  TYR304      0.2290
     76  O        -15.9910  -17.0250  -25.3740 O.2   304  TYR304     -0.2864
     77  CB       -15.4800  -19.5120  -26.5680 C.3   304  TYR304      0.0560
     78  CG       -16.6900  -19.4470  -27.5240 C.ar  304  TYR304     -0.0198
     79  CD1      -17.2480  -20.5960  -27.9970 C.ar  304  TYR304     -0.0009
     80  CD2      -17.2870  -18.2230  -27.8910 C.ar  304  TYR304     -0.0009
     81  CE1      -18.4550  -20.5730  -28.8250 C.ar  304  TYR304      0.0417
     82  CE2      -18.4540  -18.1670  -28.7550 C.ar  304  TYR304      0.0417
     83  CZ       -19.0100  -19.3760  -29.2110 C.ar  304  TYR304      0.1957
     84  OH       -20.1090  -19.4330  -30.0410 O.3   304  TYR304     -0.2866
     85  N        -13.4990  -15.6820  -23.7880 N.3   307  THR307     -0.1218
     86  CA       -12.7380  -15.4760  -24.9690 C.3   307  THR307      0.1862
     87  C        -13.3220  -14.3720  -25.7940 C.2   307  THR307      0.2287
     88  O        -12.5780  -13.8270  -26.5810 O.2   307  THR307     -0.2866
     89  CB       -12.7920  -16.7970  -25.7940 C.3   307  THR307      0.1770
     90  OG1      -12.1610  -17.8050  -25.0440 O.3   307  THR307     -0.2211
     91  CG2      -12.0480  -16.7410  -27.1430 C.3   307  THR307      0.0375
@<TRIPOS>BOND
     1    84    83    1
     2    83    81   ar
     3    83    82   ar
     4    81    79   ar
     5    82    80   ar
     6    16    15    2
     7    14    15    1
     8    14    13    2
     9    15    17   am
    10    79    78   ar
    11    80    78   ar
    12    11    10    1
    13    11    12    2
    14    78    77    1
    15    10    13    1
    16    10     9    1
    17    91    89    1
    18    37    36    1
    19    88    87    2
    20    77    74    1
    21    21    20    2
    22    26    27    1
    23    36    35   ar
    24    36    34   ar
    25    35    33   ar
    26    89    90    1
    27    89    86    1
    28    87    86    1
    29    34    32   ar
    30    20    19    1
    31    22    19    1
    32    22    23    1
    33    76    75    2
    34    33    31   ar
    35    25    23    1
    36    74    75    1
    37    74    73    1
    38    86    85    1
    39    32    31   ar
    40    27    30    1
    41    27    28    1
    42    69    70    1
    43    31    30    1
    44    19    18    1
    45    73    71   am
    46    23    24    1
    47    71    72    2
    48    71    70    1
    49    28    29    2
    50     8     6    1
    51     4     3    2
    52     6     7    1
    53     6     5    1
    54     3     2    1
    55    61    60    2
    56    64    65    1
    57    64    63    1
    58    62    63    1
    59    62    59    1
    60    60    59    1
    61    45    47   ar
    62    45    43   ar
    63    65    66    2
    64    42    43    1
    65    42    39    1
    66     5     2    1
    67     2     1    1
    68    47    48   ar
    69    59    58    1
    70    66    67    1
    71    66    68    1
    72    43    44   ar
    73    39    38    1
    74    39    40    1
    75    48    49    1
    76    48    46   ar
    77    44    46   ar
    78    55    57    1
    79    55    54    1
    80    40    41    2
    81    54    56    1
    82    54    51    1
    83    51    50    1
    84    51    52    1
    85    52    53    2
