@<TRIPOS>MOLECULE
tmp/3cupA00.pdb
 85 80 0 0 0
SMALL
GASTEIGER

@<TRIPOS>ATOM
      1  N         51.1020   -4.6240   60.2220 N.3    29  GLY29      -0.1225
      2  CA        50.1860   -3.5330   60.4880 C.3    29  GLY29       0.1811
      3  C         50.7700   -2.4220   61.3340 C.2    29  GLY29       0.2280
      4  O         50.5300   -1.2450   61.0700 O.2    29  GLY29      -0.2866
      5  N         36.3830    8.3500   58.8050 N.3    89  GLN89      -0.1245
      6  CA        35.4510    7.6510   59.6790 C.3    89  GLN89       0.1566
      7  C         36.0840    7.4710   61.0520 C.2    89  GLN89       0.2260
      8  O         36.9820    6.6470   61.2280 O.2    89  GLN89      -0.2867
      9  CB        35.0920    6.2890   59.0830 C.3    89  GLN89       0.0367
     10  CG        34.3940    6.3720   57.7350 C.3    89  GLN89       0.0905
     11  CD        34.6050    5.1320   56.8810 C.2    89  GLN89       0.2608
     12  OE1       35.6280    4.4510   56.9890 O.2    89  GLN89      -0.2717
     13  NE2       33.6380    4.8390   56.0160 N.am   89  GLN89      -0.0878
     14  N         40.4010    6.1750   66.5110 N.3   109  PHE109     -0.1241
     15  CA        40.7770    5.5620   65.2480 C.3   109  PHE109      0.1605
     16  C         40.0860    6.2920   64.1110 C.2   109  PHE109      0.2264
     17  O         38.8650    6.4410   64.1100 O.2   109  PHE109     -0.2867
     18  CB        40.3820    4.0850   65.2410 C.3   109  PHE109      0.0534
     19  CG        40.6180    3.3960   63.9270 C.ar  109  PHE109     -0.0203
     20  CD1       41.8690    2.8910   63.6110 C.ar  109  PHE109     -0.0042
     21  CD2       39.5840    3.2400   63.0120 C.ar  109  PHE109     -0.0042
     22  CE1       42.0900    2.2510   62.4020 C.ar  109  PHE109     -0.0003
     23  CE2       39.8000    2.5980   61.8020 C.ar  109  PHE109     -0.0003
     24  CZ        41.0540    2.1040   61.4970 C.ar  109  PHE109     -0.0000
     25  N         39.6940    6.4500   59.8560 N.3   111  ASP111     -0.1225
     26  CA        39.9100    5.6710   58.6430 C.3   111  ASP111      0.1805
     27  C         39.4690    6.4350   57.4020 C.2   111  ASP111      0.2597
     28  O         38.7560    7.4350   57.4950 O.2   111  ASP111     -0.2718
     29  CB        39.1630    4.3390   58.7280 C.3   111  ASP111      0.1424
     30  CG        39.8360    3.2440   57.9310 C.2   111  ASP111      0.3668
     31  OD1       40.8460    3.5350   57.2600 O.co2 111  ASP111     -0.2456
     32  OD2       39.3600    2.0910   57.9810 O.co2 111  ASP111     -0.2456
     33  N         39.9070    5.9550   56.2440 N.am  112  ASN112     -0.1974
     34  CA        39.5490    6.5560   54.9660 C.3   112  ASN112      0.1688
     35  C         40.0530    7.9920   54.8150 C.2   112  ASN112      0.2292
     36  O         39.3390    8.8680   54.3270 O.2   112  ASN112     -0.2864
     37  CB        38.0370    6.5090   54.7740 C.3   112  ASN112      0.1181
     38  CG        37.6420    6.5050   53.3230 C.2   112  ASN112      0.2629
     39  OD1       38.2010    5.7560   52.5170 O.2   112  ASN112     -0.2716
     40  ND2       36.6690    7.3360   52.9740 N.am  112  ASN112     -0.0877
     41  N         46.4660    2.1150   53.6720 N.3   141  ASN141     -0.1225
     42  CA        45.4560    1.0950   53.4240 C.3   141  ASN141      0.1785
     43  C         45.6070    0.5330   52.0130 C.2   141  ASN141      0.2597
     44  O         46.2730    1.1300   51.1670 O.2   141  ASN141     -0.2718
     45  CB        44.0500    1.6780   53.5740 C.3   141  ASN141      0.1169
     46  CG        43.8180    2.3100   54.9290 C.2   141  ASN141      0.2627
     47  OD1       44.2050    1.7600   55.9590 O.2   141  ASN141     -0.2716
     48  ND2       43.1660    3.4660   54.9370 N.am  141  ASN141     -0.0877
     49  N         44.9800   -0.6100   51.7580 N.am  142  ARG142     -0.1966
     50  CA        44.9330   -1.1540   50.4080 C.3   142  ARG142      0.1729
     51  C         44.1760   -0.2010   49.4980 C.2   142  ARG142      0.2616
     52  O         44.4110   -0.1600   48.2940 O.2   142  ARG142     -0.2715
     53  CB        44.2660   -2.5270   50.3930 C.3   142  ARG142      0.0348
     54  CG        45.1620   -3.6630   50.8460 C.3   142  ARG142      0.0492
     55  CD        44.5260   -5.0110   50.5340 C.3   142  ARG142      0.2205
     56  NE        43.1770   -5.1220   51.0860 N.pl3 142  ARG142     -0.0865
     57  CZ        42.9080   -5.4160   52.3560 C.cat 142  ARG142      0.5346
     58  NH1       43.8980   -5.6270   53.2180 N.pl3 142  ARG142      0.1354
     59  NH2       41.6480   -5.4950   52.7680 N.pl3 142  ARG142      0.1354
     60  N         43.2610    0.5630   50.0830 N.am  143  ASP143     -0.1971
     61  CA        42.5480    1.5970   49.3510 C.3   143  ASP143      0.1709
     62  C         43.5300    2.6020   48.7880 C.2   143  ASP143      0.2293
     63  O         43.1800    3.4140   47.9350 O.2   143  ASP143     -0.2864
     64  CB        41.5850    2.3320   50.2780 C.3   143  ASP143      0.1436
     65  CG        40.2120    1.7040   50.3130 C.2   143  ASP143      0.3671
     66  OD1       39.7450    1.2130   49.2620 O.co2 143  ASP143     -0.2456
     67  OD2       39.5910    1.7140   51.3950 O.co2 143  ASP143     -0.2456
     68  N         44.7810    5.5810   57.3320 N.3   147  HIS147     -0.1241
     69  CA        44.1280    5.6530   58.6270 C.3   147  HIS147      0.1621
     70  C         45.1100    6.1790   59.6670 C.2   147  HIS147      0.2264
     71  O         46.3240    6.0240   59.5220 O.2   147  HIS147     -0.2867
     72  CB        43.5440    4.2980   59.0360 C.3   147  HIS147      0.0745
     73  CG        44.5620    3.3100   59.5120 C.ar  147  HIS147      0.0817
     74  ND1       45.0040    2.2640   58.7320 N.ar  147  HIS147     -0.2268
     75  CD2       45.2080    3.1970   60.6960 C.ar  147  HIS147      0.1154
     76  CE1       45.8860    1.5540   59.4120 C.ar  147  HIS147      0.1986
     77  NE2       46.0280    2.0990   60.6070 N.ar  147  HIS147     -0.2212
     78  N         45.6180    7.2200   64.1200 N.3   149  LEU149     -0.1245
     79  CA        45.1400    7.0070   65.4760 C.3   149  LEU149      0.1561
     80  C         45.5970    8.1210   66.4100 C.2   149  LEU149      0.2260
     81  O         46.7680    8.4950   66.4200 O.2   149  LEU149     -0.2867
     82  CB        45.6150    5.6480   65.9890 C.3   149  LEU149      0.0270
     83  CG        44.9270    4.4380   65.3560 C.3   149  LEU149      0.0019
     84  CD1       45.9230    3.3280   65.0540 C.3   149  LEU149      0.0001
     85  CD2       43.8000    3.9380   66.2440 C.3   149  LEU149      0.0001
@<TRIPOS>BOND
     1    63    62    2
     2    52    51    2
     3    62    61    1
     4    66    65   ar
     5    61    60    1
     6    61    64    1
     7    51    60   am
     8    51    50    1
     9    64    65    1
    10    65    67   ar
    11    53    50    1
    12    53    54    1
    13    50    49    1
    14    55    54    1
    15    55    56    1
    16    56    57    2
    17    44    43    2
    18    49    43   am
    19    43    42    1
    20    57    59    1
    21    57    58    1
    22    39    38    2
    23    40    38   am
    24    38    37    1
    25    42    45    1
    26    42    41    1
    27    45    46    1
    28    36    35    2
    29    37    34    1
    30    35    34    1
    31    46    48   am
    32    46    47    2
    33    34    33    1
    34    13    11   am
    35    33    27   am
    36    11    12    2
    37    11    10    1
    38    31    30   ar
    39    68    69    1
    40    27    28    2
    41    27    26    1
    42    10     9    1
    43    30    32   ar
    44    30    29    1
    45    69    72    1
    46    69    70    1
    47    26    29    1
    48    26    25    1
    49    74    76   ar
    50    74    73   ar
    51     5     6    1
    52    72    73    1
    53     9     6    1
    54    76    77   ar
    55    73    75   ar
    56    71    70    2
    57     6     7    1
    58     1     2    1
    59     2     3    1
    60    77    75   ar
    61     7     8    2
    62     4     3    2
    63    24    23   ar
    64    24    22   ar
    65    23    21   ar
    66    22    20   ar
    67    21    19   ar
    68    20    19   ar
    69    19    18    1
    70    17    16    2
    71    16    15    1
    72    78    79    1
    73    84    83    1
    74    18    15    1
    75    15    14    1
    76    83    82    1
    77    83    85    1
    78    79    82    1
    79    79    80    1
    80    80    81    2
