@<TRIPOS>MOLECULE
tmp/3cuuA00.pdb
 229 219 0 0 0
SMALL
GASTEIGER

@<TRIPOS>ATOM
      1  N         32.8600   20.1390   39.2010 N.3    77  GLU77      -0.1245
      2  CA        31.5410   20.5920   38.8170 C.3    77  GLU77       0.1567
      3  C         30.6110   19.4380   38.5130 C.2    77  GLU77       0.2260
      4  O         30.9760   18.4890   37.8050 O.2    77  GLU77      -0.2867
      5  CB        31.6310   21.5360   37.6180 C.3    77  GLU77       0.0388
      6  CG        32.4270   22.8020   37.8960 C.3    77  GLU77       0.1160
      7  CD        32.3760   23.7870   36.7600 C.2    77  GLU77       0.3649
      8  OE1       33.2730   24.6350   36.6940 O.co2  77  GLU77      -0.2457
      9  OE2       31.4450   23.7350   35.9320 O.co2  77  GLU77      -0.2457
     10  N         29.3450   25.4840   35.9780 N.3   122  ASN122     -0.1240
     11  CA        29.3160   26.6960   35.1570 C.3   122  ASN122      0.1653
     12  C         28.5250   26.5450   33.8530 C.2   122  ASN122      0.2266
     13  O         27.7930   27.4560   33.4460 O.2   122  ASN122     -0.2867
     14  CB        30.7460   27.1140   34.8220 C.3   122  ASN122      0.1155
     15  CG        31.3970   27.8890   35.9410 C.2   122  ASN122      0.2627
     16  OD1       30.9710   28.9950   36.2600 O.2   122  ASN122     -0.2716
     17  ND2       32.4380   27.3170   36.5410 N.am  122  ASN122     -0.0877
     18  N         29.0700   23.6580   30.2070 N.3   124  GLY124     -0.1210
     19  CA        29.1290   22.3710   29.4930 C.3   124  GLY124      0.1956
     20  C         29.8730   21.2670   30.2160 C.2   124  GLY124      0.2611
     21  O         29.4450   20.1070   30.2170 O.2   124  GLY124     -0.2717
     22  N         30.9950   21.6300   30.8320 N.am  125  LEU125     -0.1979
     23  CA        31.8480   20.6760   31.5450 C.3   125  LEU125      0.1596
     24  C         31.1100   20.0930   32.7590 C.2   125  LEU125      0.2287
     25  O         31.1110   18.8740   32.9780 O.2   125  LEU125     -0.2864
     26  CB        33.1730   21.3560   31.9480 C.3   125  LEU125      0.0297
     27  CG        34.1610   20.6710   32.8990 C.3   125  LEU125      0.0022
     28  CD1       35.5700   21.1780   32.6510 C.3   125  LEU125      0.0001
     29  CD2       33.7700   20.9020   34.3570 C.3   125  LEU125      0.0001
     30  N         28.1020   17.9070   31.5550 N.3   128  LEU128     -0.1245
     31  CA        28.5820   16.6200   31.0460 C.3   128  LEU128      0.1561
     32  C         28.7350   15.6160   32.1830 C.2   128  LEU128      0.2260
     33  O         28.3540   14.4550   32.0500 O.2   128  LEU128     -0.2867
     34  CB        29.9140   16.7730   30.2970 C.3   128  LEU128      0.0270
     35  CG        30.3670   15.5180   29.5350 C.3   128  LEU128      0.0019
     36  CD1       29.5700   15.3230   28.2280 C.3   128  LEU128      0.0001
     37  CD2       31.8650   15.5190   29.2610 C.3   128  LEU128      0.0001
     38  N         33.7880   28.7080   41.8300 N.3   266  TYR266     -0.1241
     39  CA        34.4260   29.6740   40.9320 C.3   266  TYR266      0.1605
     40  C         33.6490   29.7670   39.6200 C.2   266  TYR266      0.2264
     41  O         33.4740   28.7590   38.9350 O.2   266  TYR266     -0.2867
     42  CB        35.8970   29.3280   40.6860 C.3   266  TYR266      0.0534
     43  CG        36.7880   29.9250   41.7380 C.ar  266  TYR266     -0.0201
     44  CD1       36.9880   29.2740   42.9530 C.ar  266  TYR266     -0.0009
     45  CD2       37.3990   31.1600   41.5400 C.ar  266  TYR266     -0.0009
     46  CE1       37.7890   29.8210   43.9360 C.ar  266  TYR266      0.0417
     47  CE2       38.2080   31.7210   42.5300 C.ar  266  TYR266      0.0417
     48  CZ        38.3960   31.0400   43.7230 C.ar  266  TYR266      0.1957
     49  OH        39.1850   31.5790   44.7130 O.3   266  TYR266     -0.2866
     50  N         34.2540   31.2390   36.7550 N.3   268  ASN268     -0.1225
     51  CA        35.0340   31.5880   35.5670 C.3   268  ASN268      0.1785
     52  C         35.0360   30.4780   34.5170 C.2   268  ASN268      0.2597
     53  O         35.6530   29.4350   34.7110 O.2   268  ASN268     -0.2718
     54  CB        36.4620   31.9850   35.9520 C.3   268  ASN268      0.1169
     55  CG        37.0250   33.0820   35.0590 C.2   268  ASN268      0.2627
     56  OD1       36.9100   33.0270   33.8290 O.2   268  ASN268     -0.2716
     57  ND2       37.6400   34.0880   35.6780 N.am  268  ASN268     -0.0877
     58  N         34.3230   30.7190   33.4200 N.am  269  ASP269     -0.1960
     59  CA        34.1530   29.7710   32.3150 C.3   269  ASP269      0.1840
     60  C         35.2090   30.0820   31.2360 C.2   269  ASP269      0.2622
     61  O         35.3460   31.2230   30.7880 O.2   269  ASP269     -0.2715
     62  CB        32.7250   29.9220   31.7450 C.3   269  ASP269      0.1450
     63  CG        32.2230   28.6730   31.0150 C.2   269  ASP269      0.3671
     64  OD1       32.0430   27.6130   31.6570 O.co2 269  ASP269     -0.2456
     65  OD2       31.9660   28.7560   29.7870 O.co2 269  ASP269     -0.2456
     66  N         35.9630   29.0660   30.8360 N.am  270  ASN270     -0.1958
     67  CA        37.0030   29.1930   29.7860 C.3   270  ASN270      0.1819
     68  C         38.1220   30.2440   29.9690 C.2   270  ASN270      0.2621
     69  O         38.6030   30.8280   28.9880 O.2   270  ASN270     -0.2715
     70  CB        36.3750   29.2590   28.3820 C.3   270  ASN270      0.1195
     71  CG        36.5280   27.9510   27.6160 C.2   270  ASN270      0.2630
     72  OD1       37.5620   27.7090   26.9810 O.2   270  ASN270     -0.2716
     73  ND2       35.5000   27.1020   27.6720 N.am  270  ASN270     -0.0877
     74  N         38.5390   30.4620   31.2190 N.am  271  PHE271     -0.1960
     75  CA        39.7010   31.3080   31.5440 C.3   271  PHE271      0.1771
     76  C         40.3220   30.8940   32.8930 C.2   271  PHE271      0.2619
     77  O         39.5950   30.5730   33.8430 O.2   271  PHE271     -0.2715
     78  CB        39.3170   32.7950   31.5240 C.3   271  PHE271      0.0574
     79  CG        40.4140   33.7200   31.9810 C.ar  271  PHE271     -0.0200
     80  CD1       41.6040   33.8270   31.2640 C.ar  271  PHE271     -0.0042
     81  CD2       40.2490   34.4970   33.1280 C.ar  271  PHE271     -0.0042
     82  CE1       42.6250   34.6890   31.6920 C.ar  271  PHE271     -0.0003
     83  CE2       41.2580   35.3630   33.5670 C.ar  271  PHE271     -0.0003
     84  CZ        42.4470   35.4590   32.8490 C.ar  271  PHE271     -0.0000
     85  N         41.6550   30.8820   32.9720 N.am  272  PHE272     -0.1974
     86  CA        42.3330   30.3930   34.1810 C.3   272  PHE272      0.1639
     87  C         42.8130   31.4850   35.1240 C.2   272  PHE272      0.2290
     88  O         43.5610   32.3850   34.7340 O.2   272  PHE272     -0.2864
     89  CB        43.4860   29.4220   33.8630 C.3   272  PHE272      0.0560
     90  CG        44.3320   29.0600   35.0710 C.ar  272  PHE272     -0.0200
     91  CD1       45.6250   29.5690   35.2160 C.ar  272  PHE272     -0.0042
     92  CD2       43.8280   28.2280   36.0730 C.ar  272  PHE272     -0.0042
     93  CE1       46.4030   29.2430   36.3280 C.ar  272  PHE272     -0.0003
     94  CE2       44.5960   27.8980   37.1910 C.ar  272  PHE272     -0.0003
     95  CZ        45.8860   28.4030   37.3180 C.ar  272  PHE272     -0.0000
     96  N         41.1580   28.4880   44.9900 N.3   278  ARG278     -0.1245
     97  CA        40.8320   27.5080   43.9520 C.3   278  ARG278      0.1563
     98  C         41.7310   26.2700   44.0210 C.2   278  ARG278      0.2260
     99  O         41.2500   25.1520   43.8690 O.2   278  ARG278     -0.2867
    100  CB        40.8890   28.1430   42.5620 C.3   278  ARG278      0.0307
    101  CG        40.7850   27.1660   41.3880 C.3   278  ARG278      0.0489
    102  CD        39.3960   26.5130   41.2790 C.3   278  ARG278      0.2205
    103  NE        39.2910   25.6830   40.0780 N.pl3 278  ARG278     -0.0865
    104  CZ        38.1500   25.2310   39.5570 C.cat 278  ARG278      0.5346
    105  NH1       36.9870   25.5070   40.1340 N.pl3 278  ARG278      0.1354
    106  NH2       38.1760   24.4880   38.4570 N.pl3 278  ARG278      0.1354
    107  N         38.8620   17.1340   33.2090 N.3   316  ASP316     -0.1239
    108  CA        39.8550   18.1800   32.9310 C.3   316  ASP316      0.1674
    109  C         41.0210   18.0990   33.9310 C.2   316  ASP316      0.2266
    110  O         41.1830   17.0840   34.5990 O.2   316  ASP316     -0.2867
    111  CB        39.2180   19.5800   32.8720 C.3   316  ASP316      0.1410
    112  CG        39.9570   20.4870   31.8980 C.2   316  ASP316      0.3668
    113  OD1       39.5420   20.5900   30.7140 O.co2 316  ASP316     -0.2456
    114  OD2       40.9990   21.0420   32.3050 O.co2 316  ASP316     -0.2456
    115  N         41.4170   19.9540   36.5850 N.3   318  HIS318     -0.1241
    116  CA        41.0340   20.4660   37.9050 C.3   318  HIS318      0.1621
    117  C         41.3260   19.5060   39.0660 C.2   318  HIS318      0.2264
    118  O         41.7610   19.9550   40.1180 O.2   318  HIS318     -0.2867
    119  CB        39.5810   20.9690   37.9340 C.3   318  HIS318      0.0745
    120  CG        39.2140   21.8240   36.7600 C.ar  318  HIS318      0.0817
    121  ND1       37.9270   21.9060   36.2750 N.ar  318  HIS318     -0.2268
    122  CD2       39.9740   22.5990   35.9470 C.ar  318  HIS318      0.1154
    123  CE1       37.9040   22.7160   35.2300 C.ar  318  HIS318      0.1986
    124  NE2       39.1340   23.1470   35.0080 N.ar  318  HIS318     -0.2212
    125  N         39.0030   19.4260   27.7440 N.3   354  HIS354     -0.1226
    126  CA        37.7590   20.0940   27.3420 C.3   354  HIS354      0.1752
    127  C         37.9220   21.4090   26.5770 C.2   354  HIS354      0.2596
    128  O         36.9180   22.0350   26.2180 O.2   354  HIS354     -0.2718
    129  CB        36.8470   20.3270   28.5490 C.3   354  HIS354      0.0759
    130  CG        36.4060   19.0740   29.2310 C.ar  354  HIS354      0.0818
    131  ND1       35.2430   18.4160   28.8980 N.ar  354  HIS354     -0.2268
    132  CD2       36.9710   18.3590   30.2330 C.ar  354  HIS354      0.1154
    133  CE1       35.1060   17.3520   29.6690 C.ar  354  HIS354      0.1986
    134  NE2       36.1440   17.2910   30.4840 N.ar  354  HIS354     -0.2212
    135  N         39.1570   21.8360   26.3260 N.am  355  THR355     -0.1953
    136  CA        39.3820   23.0520   25.5310 C.3   355  THR355      0.1897
    137  C         40.8080   23.1580   25.0190 C.2   355  THR355      0.2313
    138  O         41.7240   22.5920   25.6120 O.2   355  THR355     -0.2863
    139  CB        38.9890   24.3570   26.2980 C.3   355  THR355      0.1794
    140  OG1       39.2030   25.5060   25.4580 O.3   355  THR355     -0.2208
    141  CG2       39.7930   24.4950   27.5890 C.3   355  THR355      0.0378
    142  N         42.9380   29.0340   29.0440 N.3   360  ALA360     -0.1245
    143  CA        42.1810   28.1130   29.8850 C.3   360  ALA360      0.1562
    144  C         43.0620   27.0990   30.6210 C.2   360  ALA360      0.2260
    145  O         42.6590   26.5810   31.6630 O.2   360  ALA360     -0.2867
    146  CB        41.1240   27.4020   29.0660 C.3   360  ALA360      0.0290
    147  N         45.4990   25.2560   33.0200 N.3   362  GLU362     -0.1245
    148  CA        45.9240   25.4830   34.3930 C.3   362  GLU362      0.1567
    149  C         47.4350   25.4510   34.4800 C.2   362  GLU362      0.2260
    150  O         48.0590   24.4320   34.1950 O.2   362  GLU362     -0.2867
    151  CB        45.3280   24.4400   35.3380 C.3   362  GLU362      0.0388
    152  CG        43.8370   24.5930   35.5390 C.3   362  GLU362      0.1160
    153  CD        43.3320   23.7960   36.7070 C.2   362  GLU362      0.3649
    154  OE1       43.3500   22.5440   36.6430 O.co2 362  GLU362     -0.2457
    155  OE2       42.9230   24.4310   37.6940 O.co2 362  GLU362     -0.2457
    156  N         36.8720   15.4280   23.2490 N.3   432  VAL432     -0.1245
    157  CA        35.4470   15.2890   23.4900 C.3   432  VAL432      0.1561
    158  C         34.6100   15.3620   22.2110 C.2   432  VAL432      0.2260
    159  O         33.3850   15.2690   22.2570 O.2   432  VAL432     -0.2867
    160  CB        34.9660   16.2940   24.5690 C.3   432  VAL432      0.0252
    161  CG1       35.5550   15.9210   25.9210 C.3   432  VAL432      0.0019
    162  CG2       35.3310   17.7270   24.1950 C.3   432  VAL432      0.0019
    163  N         31.2410   13.6830   22.9610 N.3   461  ASN461     -0.1240
    164  CA        30.2950   13.9800   24.0200 C.3   461  ASN461      0.1653
    165  C         28.8860   13.4990   23.7100 C.2   461  ASN461      0.2266
    166  O         28.5660   13.1560   22.5720 O.2   461  ASN461     -0.2867
    167  CB        30.2900   15.4830   24.3110 C.3   461  ASN461      0.1155
    168  CG        31.4110   15.9050   25.2470 C.2   461  ASN461      0.2627
    169  OD1       31.6740   17.0990   25.4150 O.2   461  ASN461     -0.2716
    170  ND2       32.0630   14.9370   25.8720 N.am  461  ASN461     -0.0877
    171  N         34.5210   33.5290   21.9090 N.3   550  TYR550     -0.1227
    172  CA        34.6480   32.4280   20.9470 C.3   550  TYR550      0.1736
    173  C         33.3020   31.8820   20.4690 C.2   550  TYR550      0.2595
    174  O         33.1970   31.4060   19.3400 O.2   550  TYR550     -0.2718
    175  CB        35.6000   31.3250   21.4420 C.3   550  TYR550      0.0548
    176  CG        35.0240   30.2160   22.2960 C.ar  550  TYR550     -0.0200
    177  CD1       34.4010   29.1160   21.7110 C.ar  550  TYR550     -0.0009
    178  CD2       35.1680   30.2270   23.6810 C.ar  550  TYR550     -0.0009
    179  CE1       33.9040   28.0770   22.4810 C.ar  550  TYR550      0.0417
    180  CE2       34.6680   29.1900   24.4670 C.ar  550  TYR550      0.0417
    181  CZ        34.0390   28.1200   23.8580 C.ar  550  TYR550      0.1957
    182  OH        33.5390   27.0850   24.6190 O.3   550  TYR550     -0.2866
    183  N         32.2820   31.9830   21.3150 N.am  551  LYS551     -0.1980
    184  CA        30.9360   31.5200   20.9820 C.3   551  LYS551      0.1596
    185  C         30.2000   32.5010   20.0600 C.2   551  LYS551      0.2287
    186  O         29.1660   32.1680   19.4830 O.2   551  LYS551     -0.2864
    187  CB        30.1400   31.2480   22.2620 C.3   551  LYS551      0.0298
    188  CG        30.6630   30.0380   23.0580 C.3   551  LYS551      0.0038
    189  CD        30.1430   30.0420   24.4940 C.3   551  LYS551      0.0206
    190  CE        30.6790   28.8640   25.3110 C.3   551  LYS551      0.1093
    191  NZ        30.1150   27.5440   24.8700 N.3   551  LYS551     -0.1314
    192  N         37.4240   26.2560   18.0090 N.3   648  THR648     -0.1203
    193  CA        37.3740   26.8080   19.3710 C.3   648  THR648      0.1994
    194  C         36.4610   26.0620   20.3500 C.2   648  THR648      0.2618
    195  O         36.8090   25.9070   21.5190 O.2   648  THR648     -0.2717
    196  CB        37.0060   28.3110   19.3580 C.3   648  THR648      0.1784
    197  OG1       35.6720   28.4800   18.8540 O.3   648  THR648     -0.2211
    198  CG2       37.9920   29.0920   18.4940 C.3   648  THR648      0.0376
    199  N         35.3000   25.6070   19.8800 N.am  649  GLU649     -0.1965
    200  CA        34.3630   24.8570   20.7250 C.3   649  GLU649      0.1733
    201  C         34.7450   23.3700   20.7030 C.2   649  GLU649      0.2616
    202  O         34.5610   22.7080   19.6880 O.2   649  GLU649     -0.2715
    203  CB        32.9190   25.0640   20.2310 C.3   649  GLU649      0.0429
    204  CG        31.8340   24.5400   21.1690 C.3   649  GLU649      0.1163
    205  CD        31.6760   25.4000   22.4010 C.2   649  GLU649      0.3649
    206  OE1       32.2980   25.0650   23.4270 O.co2 649  GLU649     -0.2457
    207  OE2       30.9680   26.4310   22.3440 O.co2 649  GLU649     -0.2457
    208  N         35.2880   22.8500   21.8060 N.am  650  ALA650     -0.1963
    209  CA        35.7960   21.4730   21.8150 C.3   650  ALA650      0.1728
    210  C         34.7530   20.4670   21.3080 C.2   650  ALA650      0.2617
    211  O         35.0450   19.6380   20.4300 O.2   650  ALA650     -0.2715
    212  CB        36.3170   21.0800   23.1920 C.3   650  ALA650      0.0334
    213  N         33.5420   20.5510   21.8530 N.am  651  SER651     -0.1936
    214  CA        32.4570   19.7050   21.4040 C.3   651  SER651      0.2055
    215  C         31.1640   20.4840   21.3050 C.2   651  SER651      0.2644
    216  O         30.5390   20.5360   20.2320 O.2   651  SER651     -0.2714
    217  CB        32.2700   18.5130   22.3460 C.3   651  SER651      0.2130
    218  OG        31.0460   17.8460   22.0710 O.3   651  SER651     -0.2179
    219  N         30.7690   21.0880   22.4260 N.am  652  GLY652     -0.1939
    220  CA        29.4100   21.5840   22.5980 C.3   652  GLY652      0.2014
    221  C         28.5180   20.4210   22.9960 C.2   652  GLY652      0.2639
    222  O         28.7870   19.2710   22.6280 O.2   652  GLY652     -0.2714
    223  N         27.4790   20.7030   23.7770 N.am  653  THR653     -0.1950
    224  CA        26.4650   19.6970   24.1140 C.3   653  THR653      0.1897
    225  C         25.0660   20.2880   23.9860 C.2   653  THR653      0.2313
    226  O         24.0940   19.5640   23.7660 O.2   653  THR653     -0.2863
    227  CB        26.6560   19.1050   25.5250 C.3   653  THR653      0.1794
    228  OG1       26.7840   20.1680   26.4700 O.3   653  THR653     -0.2208
    229  CG2       27.8900   18.2340   25.5790 C.3   653  THR653      0.0378
@<TRIPOS>BOND
     1   192   193    1
     2   198   196    1
     3   197   196    1
     4   174   173    2
     5   196   193    1
     6   193   194    1
     7   186   185    2
     8   202   201    2
     9   199   194   am
    10   199   200    1
    11   185   184    1
    12   203   200    1
    13   203   204    1
    14   216   215    2
    15   194   195    2
    16   211   210    2
    17   173   172    1
    18   173   183   am
    19   201   200    1
    20   201   208   am
    21   172   175    1
    22   172   171    1
    23   184   183    1
    24   184   187    1
    25   204   205    1
    26   215   214    1
    27   215   219   am
    28   210   209    1
    29   210   213   am
    30   214   213    1
    31   214   217    1
    32   175   176    1
    33   177   176   ar
    34   177   179   ar
    35   208   209    1
    36   209   212    1
    37   218   217    1
    38   158   159    2
    39   158   157    1
    40   187   188    1
    41   176   178   ar
    42   207   205   ar
    43   205   206   ar
    44   219   220    1
    45   179   181   ar
    46   166   165    2
    47   220   221    1
    48   222   221    2
    49   163   164    1
    50   221   223   am
    51   188   189    1
    52   156   157    1
    53   157   160    1
    54   178   180   ar
    55   165   164    1
    56   226   225    2
    57   223   224    1
    58   181   180   ar
    59   181   182    1
    60   225   224    1
    61   164   167    1
    62   224   227    1
    63   162   160    1
    64   167   168    1
    65   189   190    1
    66   160   161    1
    67   191   190    1
    68   137   136    1
    69   137   138    2
    70   168   169    2
    71   168   170   am
    72   140   139    1
    73   227   229    1
    74   227   228    1
    75   136   139    1
    76   136   135    1
    77   128   127    2
    78   139   141    1
    79   135   127   am
    80   127   126    1
    81    72    71    2
    82   126   125    1
    83   126   129    1
    84    71    73   am
    85    71    70    1
    86    36    35    1
    87    70    67    1
    88   129   130    1
    89   131   130   ar
    90   131   133   ar
    91    69    68    2
    92   142   143    1
    93   146   143    1
    94   130   132   ar
    95    37    35    1
    96    19    18    1
    97    19    20    1
    98    35    34    1
    99   133   134   ar
   100    67    68    1
   101    67    66    1
   102    65    63   ar
   103   143   144    1
   104    68    74   am
   105    20    21    2
   106    20    22   am
   107   132   134   ar
   108    34    31    1
   109   144   145    2
   110   113   112   ar
   111    61    60    2
   112    22    23    1
   113    66    60   am
   114    63    64   ar
   115    63    62    1
   116    31    30    1
   117    31    32    1
   118    74    75    1
   119    60    59    1
   120    80    82   ar
   121    80    79   ar
   122    78    75    1
   123    78    79    1
   124    75    76    1
   125    23    26    1
   126    23    24    1
   127    82    84   ar
   128    62    59    1
   129   112   114   ar
   130   112   111    1
   131    26    27    1
   132    79    81   ar
   133    33    32    2
   134    59    58    1
   135    28    27    1
   136    24    25    2
   137    84    83   ar
   138   111   108    1
   139    76    85   am
   140    76    77    2
   141    27    29    1
   142   108   107    1
   143   108   109    1
   144    85    86    1
   145   147   148    1
   146    81    83   ar
   147    58    52   am
   148    13    12    2
   149    56    55    2
   150    12    11    1
   151    89    86    1
   152    89    90    1
   153   109   110    2
   154    86    87    1
   155   150   149    2
   156   148   149    1
   157   148   151    1
   158    52    53    2
   159    52    51    1
   160    88    87    2
   161    14    11    1
   162    14    15    1
   163   124   123   ar
   164   124   122   ar
   165    55    57   am
   166    55    54    1
   167    90    91   ar
   168    90    92   ar
   169    11    10    1
   170    91    93   ar
   171   123   121   ar
   172   151   152    1
   173   152   153    1
   174    51    54    1
   175    51    50    1
   176     9     7   ar
   177    15    16    2
   178    15    17   am
   179   122   120   ar
   180    92    94   ar
   181   121   120   ar
   182    93    95   ar
   183   115   116    1
   184   154   153   ar
   185     8     7   ar
   186   153   155   ar
   187   120   119    1
   188     7     6    1
   189    94    95   ar
   190     5     6    1
   191     5     2    1
   192     4     3    2
   193   116   119    1
   194   116   117    1
   195   106   104    1
   196     3     2    1
   197     2     1    1
   198    41    40    2
   199   117   118    2
   200   104   103    2
   201   104   105    1
   202    40    39    1
   203   103   102    1
   204    42    39    1
   205    42    43    1
   206    39    38    1
   207   102   101    1
   208   101   100    1
   209    45    43   ar
   210    45    47   ar
   211    43    44   ar
   212    47    48   ar
   213   100    97    1
   214    44    46   ar
   215    48    46   ar
   216    48    49    1
   217    99    98    2
   218    97    98    1
   219    97    96    1
