@<TRIPOS>MOLECULE
tmp/3cuwA00.pdb
 116 117 0 0 0
SMALL
GASTEIGER

@<TRIPOS>ATOM
      1  N          9.9790   14.1200   49.7600 N.3    46  HIS46      -0.1241
      2  CA        10.1710   13.0640   50.7510 C.3    46  HIS46       0.1621
      3  C          9.4300   11.7870   50.3800 C.2    46  HIS46       0.2264
      4  O          9.9510   10.7000   50.5690 O.2    46  HIS46      -0.2867
      5  CB         9.7580   13.5380   52.1480 C.3    46  HIS46       0.0745
      6  CG        10.8040   14.3620   52.8200 C.ar   46  HIS46       0.0817
      7  ND1       10.8960   15.7260   52.6500 N.ar   46  HIS46      -0.2268
      8  CD2       11.8330   14.0120   53.6250 C.ar   46  HIS46       0.1154
      9  CE1       11.9270   16.1840   53.3360 C.ar   46  HIS46       0.1986
     10  NE2       12.5120   15.1640   53.9380 N.ar   46  HIS46      -0.2212
     11  N         11.5010   10.3010   47.4880 N.3    49  ARG49      -0.1245
     12  CA        12.7960    9.8840   48.0030 C.3    49  ARG49       0.1563
     13  C         12.7360    8.5560   48.7610 C.2    49  ARG49       0.2260
     14  O         13.6670    7.7610   48.6740 O.2    49  ARG49      -0.2867
     15  CB        13.4240   11.0100   48.8390 C.3    49  ARG49       0.0307
     16  CG        13.8990   10.6230   50.2190 C.3    49  ARG49       0.0489
     17  CD        14.4210   11.8480   50.9500 C.3    49  ARG49       0.2205
     18  NE        14.4090   11.6660   52.3990 N.pl3  49  ARG49      -0.0865
     19  CZ        14.8810   12.5590   53.2670 C.cat  49  ARG49       0.5346
     20  NH1       15.4110   13.6970   52.8320 N.pl3  49  ARG49       0.1354
     21  NH2       14.8260   12.3150   54.5720 N.pl3  49  ARG49       0.1354
     22  N         13.5960    5.5440   46.7780 N.3    52  LEU52      -0.1231
     23  CA        15.0010    5.3690   46.4140 C.3    52  LEU52       0.1693
     24  C         15.7780    4.5330   47.4190 C.2    52  LEU52       0.2591
     25  O         16.7180    3.8230   47.0510 O.2    52  LEU52      -0.2718
     26  CB        15.6900    6.7320   46.2570 C.3    52  LEU52       0.0284
     27  CG        15.4560    7.5320   44.9780 C.3    52  LEU52       0.0019
     28  CD1       15.9530    8.9680   45.1470 C.3    52  LEU52       0.0001
     29  CD2       16.1320    6.8670   43.7820 C.3    52  LEU52       0.0001
     30  N         15.3860    4.6200   48.6870 N.am   53  VAL53      -0.1980
     31  CA        16.1790    4.0840   49.8000 C.3    53  VAL53       0.1595
     32  C         16.5000    2.5940   49.6580 C.2    53  VAL53       0.2287
     33  O         17.6650    2.1980   49.7110 O.2    53  VAL53      -0.2864
     34  CB        15.5020    4.3670   51.1780 C.3    53  VAL53       0.0276
     35  CG1       16.3300    3.7840   52.3060 C.3    53  VAL53       0.0022
     36  CG2       15.3050    5.8690   51.3830 C.3    53  VAL53       0.0022
     37  N         18.7890    1.9710   46.7990 N.3    56  TRP56      -0.1241
     38  CA        20.0980    2.5540   47.0850 C.3    56  TRP56       0.1605
     39  C         20.9220    1.6340   47.9810 C.2    56  TRP56       0.2264
     40  O         22.0800    1.3500   47.6870 O.2    56  TRP56      -0.2867
     41  CB        19.9150    3.9290   47.7370 C.3    56  TRP56       0.0550
     42  CG        21.1000    4.8590   47.6410 C.ar   56  TRP56       0.0003
     43  CD1       22.2530    4.6670   46.9300 C.ar   56  TRP56       0.0946
     44  CD2       21.2090    6.1550   48.2360 C.ar   56  TRP56       0.0152
     45  NE1       23.0850    5.7530   47.0700 N.ar   56  TRP56      -0.2442
     46  CE2       22.4680    6.6830   47.8650 C.ar   56  TRP56       0.0810
     47  CE3       20.3730    6.9160   49.0630 C.ar   56  TRP56       0.0012
     48  CZ2       22.9110    7.9370   48.2940 C.ar   56  TRP56       0.0191
     49  CZ3       20.8150    8.1730   49.4880 C.ar   56  TRP56       0.0001
     50  CH2       22.0740    8.6630   49.1050 C.ar   56  TRP56       0.0015
     51  N         18.0160   20.6820   51.6250 N.3   176  ASN176     -0.1226
     52  CA        18.1200   19.8480   50.4340 C.3   176  ASN176      0.1770
     53  C         17.6470   18.4310   50.7720 C.2   176  ASN176      0.2439
     54  O         18.3550   17.6920   51.4480 O.2   176  ASN176     -0.2733
     55  CB        19.5720   19.8480   49.9140 C.3   176  ASN176      0.1168
     56  CG        19.7800   18.9340   48.7080 C.2   176  ASN176      0.2627
     57  OD1       18.8230   18.5000   48.0640 O.2   176  ASN176     -0.2716
     58  ND2       21.0480   18.6440   48.3950 N.am  176  ASN176     -0.0877
     59  N         16.4400   18.0490   50.3070 N.am  177  PRO177     -0.2718
     60  CA        15.8970   16.7460   50.6940 C.3   177  PRO177      0.1535
     61  C         16.5960   15.5730   50.0050 C.2   177  PRO177      0.2599
     62  O         16.4080   14.4270   50.4050 O.2   177  PRO177     -0.2715
     63  CB        14.4280   16.8340   50.2600 C.3   177  PRO177      0.0310
     64  CG        14.4240   17.7910   49.1320 C.3   177  PRO177      0.0237
     65  CD        15.5330   18.7840   49.4050 C.3   177  PRO177      0.0939
     66  N         17.4120   15.8670   48.9970 N.am  178  TRP178     -0.1960
     67  CA        18.0200   14.8360   48.1600 C.3   178  TRP178      0.1771
     68  C         19.3870   14.3600   48.6280 C.2   178  TRP178      0.2620
     69  O         19.9280   13.4040   48.0800 O.2   178  TRP178     -0.2715
     70  CB        18.0950   15.3210   46.7140 C.3   178  TRP178      0.0590
     71  CG        16.7620   15.7210   46.1890 C.ar  178  TRP178      0.0006
     72  CD1       16.3470   16.9800   45.8790 C.ar  178  TRP178      0.0946
     73  CD2       15.6530   14.8560   45.9390 C.ar  178  TRP178      0.0152
     74  NE1       15.0470   16.9540   45.4380 N.ar  178  TRP178     -0.2442
     75  CE2       14.5970   15.6610   45.4640 C.ar  178  TRP178      0.0810
     76  CE3       15.4490   13.4760   46.0680 C.ar  178  TRP178      0.0012
     77  CZ2       13.3490   15.1330   45.1130 C.ar  178  TRP178      0.0191
     78  CZ3       14.2120   12.9480   45.7150 C.ar  178  TRP178      0.0001
     79  CH2       13.1780   13.7780   45.2440 C.ar  178  TRP178      0.0015
     80  N         19.9460   15.0110   49.6420 N.am  179  GLU179     -0.1963
     81  CA        21.2440   14.6010   50.1560 C.3   179  GLU179      0.1733
     82  C         21.1190   13.8720   51.4910 C.2   179  GLU179      0.2616
     83  O         20.1560   14.0800   52.2320 O.2   179  GLU179     -0.2715
     84  CB        22.1670   15.8170   50.2980 C.3   179  GLU179      0.0429
     85  CG        21.7270   16.8060   51.3690 C.3   179  GLU179      0.1163
     86  CD        22.5830   18.0560   51.4180 C.2   179  GLU179      0.3649
     87  OE1       22.4000   18.8360   52.3700 O.co2 179  GLU179     -0.2457
     88  OE2       23.4140   18.2690   50.5060 O.co2 179  GLU179     -0.2457
     89  N         22.0950   13.0160   51.7810 N.am  180  LYS180     -0.1963
     90  CA        22.2240   12.4000   53.0950 C.3   180  LYS180      0.1728
     91  C         23.6130   12.7000   53.6450 C.2   180  LYS180      0.2616
     92  O         24.6160   12.1940   53.1330 O.2   180  LYS180     -0.2715
     93  CB        21.9910   10.8810   53.0300 C.3   180  LYS180      0.0311
     94  CG        22.1890   10.1430   54.3610 C.3   180  LYS180      0.0038
     95  CD        21.0910   10.4960   55.3600 C.3   180  LYS180      0.0206
     96  CE        21.3840    9.9640   56.7570 C.3   180  LYS180      0.1093
     97  NZ        22.3860   10.7980   57.4870 N.3   180  LYS180     -0.1314
     98  N         23.6570   13.5330   54.6820 N.am  181  ALA181     -0.1977
     99  CA        24.8990   13.8170   55.3910 C.3   181  ALA181      0.1597
    100  C         25.4760   12.5270   55.9530 C.2   181  ALA181      0.2287
    101  O         24.7470   11.7090   56.5180 O.2   181  ALA181     -0.2864
    102  CB        24.6520   14.8150   56.5070 C.3   181  ALA181      0.0319
    103  N         28.3180   12.2690   58.3970 N.3   183  PRO183     -0.2116
    104  CA        29.3640   12.8290   59.2760 C.3   183  PRO183      0.1372
    105  C         30.3160   11.8000   59.8860 C.2   183  PRO183      0.2244
    106  O         31.4000   12.1620   60.3540 O.2   183  PRO183     -0.2868
    107  CB        28.5640   13.5360   60.3750 C.3   183  PRO183      0.0268
    108  CG        27.2180   12.9070   60.3470 C.3   183  PRO183      0.0207
    109  CD        26.9660   12.5540   58.9160 C.3   183  PRO183      0.0892
    110  N         21.6890   10.2640   45.8280 N.3   218  PRO218     -0.2116
    111  CA        21.4270    9.1150   44.9730 C.3   218  PRO218      0.1372
    112  C         21.3370    9.5150   43.5040 C.2   218  PRO218      0.2244
    113  O         20.8510   10.6030   43.1740 O.2   218  PRO218     -0.2868
    114  CB        20.0690    8.6090   45.4740 C.3   218  PRO218      0.0268
    115  CG        19.3960    9.8120   46.0030 C.3   218  PRO218      0.0207
    116  CD        20.4910   10.6660   46.5900 C.3   218  PRO218      0.0892
@<TRIPOS>BOND
     1   113   112    2
     2   112   111    1
     3    29    27    1
     4   111   114    1
     5   111   110    1
     6    27    28    1
     7    27    26    1
     8    77    79   ar
     9    77    75   ar
    10    79    78   ar
    11    74    75   ar
    12    74    72   ar
    13    75    73   ar
    14   114   115    1
    15    78    76   ar
    16   110   116    1
    17    72    71   ar
    18    73    76   ar
    19    73    71   ar
    20   115   116    1
    21    71    70    1
    22    26    23    1
    23    23    22    1
    24    23    24    1
    25    70    67    1
    26    37    38    1
    27    43    45   ar
    28    43    42   ar
    29    25    24    2
    30    45    46   ar
    31    38    41    1
    32    38    39    1
    33    24    30   am
    34    11    12    1
    35    42    41    1
    36    42    44   ar
    37    40    39    2
    38    46    44   ar
    39    46    48   ar
    40    12    13    1
    41    12    15    1
    42    57    56    2
    43    69    68    2
    44    67    68    1
    45    67    66    1
    46    44    47   ar
    47    48    50   ar
    48    58    56   am
    49    68    80   am
    50    14    13    2
    51    30    31    1
    52    56    55    1
    53    15    16    1
    54    66    61   am
    55    47    49   ar
    56    50    49   ar
    57    64    65    1
    58    64    63    1
    59    65    59    1
    60    80    81    1
    61    32    33    2
    62    32    31    1
    63     1     2    1
    64    31    34    1
    65    55    52    1
    66    61    62    2
    67    61    60    1
    68    81    84    1
    69    81    82    1
    70    16    17    1
    71    63    60    1
    72    84    85    1
    73    59    60    1
    74    59    53   am
    75     3     4    2
    76     3     2    1
    77    52    53    1
    78    52    51    1
    79    88    86   ar
    80     2     5    1
    81    53    54    2
    82    17    18    1
    83    34    36    1
    84    34    35    1
    85    85    86    1
    86    86    87   ar
    87    82    89   am
    88    82    83    2
    89    89    90    1
    90     5     6    1
    91    18    19    2
    92     7     6   ar
    93     7     9   ar
    94     6     8   ar
    95    20    19    1
    96    93    90    1
    97    93    94    1
    98    90    91    1
    99    92    91    2
   100    19    21    1
   101     9    10   ar
   102     8    10   ar
   103    91    98   am
   104    94    95    1
   105    98    99    1
   106    95    96    1
   107    99   100    1
   108    99   102    1
   109   100   101    2
   110    96    97    1
   111   103   109    1
   112   103   104    1
   113   109   108    1
   114   104   105    1
   115   104   107    1
   116   105   106    2
   117   108   107    1
