@<TRIPOS>MOLECULE
tmp/3cuwA01.pdb
 229 219 0 0 0
SMALL
GASTEIGER

@<TRIPOS>ATOM
      1  N         32.8820   20.2210   39.2910 N.3    77  GLU77      -0.1245
      2  CA        31.5730   20.7100   38.8860 C.3    77  GLU77       0.1567
      3  C         30.6170   19.5670   38.5740 C.2    77  GLU77       0.2260
      4  O         30.9540   18.6420   37.8300 O.2    77  GLU77      -0.2867
      5  CB        31.6960   21.6320   37.6640 C.3    77  GLU77       0.0388
      6  CG        32.4950   22.9060   37.9120 C.3    77  GLU77       0.1160
      7  CD        32.4580   23.8680   36.7410 C.2    77  GLU77       0.3649
      8  OE1       33.4060   24.6670   36.6090 O.co2  77  GLU77      -0.2457
      9  OE2       31.4870   23.8330   35.9510 O.co2  77  GLU77      -0.2457
     10  N         29.2950   25.5290   36.0000 N.3   122  ASN122     -0.1240
     11  CA        29.2420   26.7470   35.1940 C.3   122  ASN122      0.1653
     12  C         28.4600   26.5880   33.8950 C.2   122  ASN122      0.2266
     13  O         27.7940   27.5210   33.4440 O.2   122  ASN122     -0.2867
     14  CB        30.6600   27.1970   34.8640 C.3   122  ASN122      0.1155
     15  CG        31.2890   27.9710   35.9840 C.2   122  ASN122      0.2627
     16  OD1       30.8870   29.1060   36.2630 O.2   122  ASN122     -0.2716
     17  ND2       32.2860   27.3730   36.6390 N.am  122  ASN122     -0.0877
     18  N         28.9160   23.6950   30.3260 N.3   124  GLY124     -0.1210
     19  CA        29.0970   22.4380   29.5930 C.3   124  GLY124      0.1956
     20  C         29.8360   21.3230   30.3140 C.2   124  GLY124      0.2611
     21  O         29.3910   20.1730   30.3060 O.2   124  GLY124     -0.2717
     22  N         30.9750   21.6540   30.9210 N.am  125  LEU125     -0.1979
     23  CA        31.7740   20.6750   31.6610 C.3   125  LEU125      0.1596
     24  C         30.9990   20.1270   32.8640 C.2   125  LEU125      0.2287
     25  O         31.0270   18.9270   33.1280 O.2   125  LEU125     -0.2864
     26  CB        33.1200   21.2870   32.0860 C.3   125  LEU125      0.0297
     27  CG        34.0720   20.5380   33.0290 C.3   125  LEU125      0.0022
     28  CD1       35.5370   20.8790   32.7200 C.3   125  LEU125      0.0001
     29  CD2       33.7520   20.8790   34.4830 C.3   125  LEU125      0.0001
     30  N         27.9740   18.0160   31.5890 N.3   128  LEU128     -0.1245
     31  CA        28.4680   16.7360   31.0830 C.3   128  LEU128      0.1561
     32  C         28.6390   15.7210   32.2090 C.2   128  LEU128      0.2260
     33  O         28.2560   14.5640   32.0630 O.2   128  LEU128     -0.2867
     34  CB        29.7880   16.8990   30.3160 C.3   128  LEU128      0.0270
     35  CG        30.2540   15.6410   29.5690 C.3   128  LEU128      0.0019
     36  CD1       29.4270   15.4130   28.3070 C.3   128  LEU128      0.0001
     37  CD2       31.7380   15.7190   29.2220 C.3   128  LEU128      0.0001
     38  N         33.7840   28.7670   41.8750 N.3   266  TYR266     -0.1241
     39  CA        34.4260   29.7600   41.0070 C.3   266  TYR266      0.1605
     40  C         33.6570   29.8500   39.6860 C.2   266  TYR266      0.2264
     41  O         33.5020   28.8400   39.0010 O.2   266  TYR266     -0.2867
     42  CB        35.8970   29.4080   40.7770 C.3   266  TYR266      0.0534
     43  CG        36.7900   29.9800   41.8470 C.ar  266  TYR266     -0.0201
     44  CD1       36.9820   29.3090   43.0470 C.ar  266  TYR266     -0.0009
     45  CD2       37.4170   31.2090   41.6680 C.ar  266  TYR266     -0.0009
     46  CE1       37.7920   29.8370   44.0430 C.ar  266  TYR266      0.0417
     47  CE2       38.2260   31.7490   42.6570 C.ar  266  TYR266      0.0417
     48  CZ        38.4080   31.0560   43.8410 C.ar  266  TYR266      0.1957
     49  OH        39.2090   31.5830   44.8240 O.3   266  TYR266     -0.2866
     50  N         34.1010   30.9220   36.6630 N.3   268  ASN268     -0.1225
     51  CA        34.7910   30.9960   35.3670 C.3   268  ASN268      0.1785
     52  C         34.4530   29.8660   34.3990 C.2   268  ASN268      0.2597
     53  O         34.6060   28.6860   34.7240 O.2   268  ASN268     -0.2718
     54  CB        36.3020   31.0720   35.5740 C.3   268  ASN268      0.1169
     55  CG        36.7130   32.3130   36.3420 C.2   268  ASN268      0.2627
     56  OD1       36.1410   33.3880   36.1520 O.2   268  ASN268     -0.2716
     57  ND2       37.7000   32.1700   37.2230 N.am  268  ASN268     -0.0877
     58  N         33.9760   30.2310   33.2140 N.am  269  ASP269     -0.1960
     59  CA        33.7950   29.2690   32.1370 C.3   269  ASP269      0.1840
     60  C         34.9050   29.5230   31.1180 C.2   269  ASP269      0.2622
     61  O         35.0000   30.6180   30.5560 O.2   269  ASP269     -0.2715
     62  CB        32.4130   29.4290   31.4970 C.3   269  ASP269      0.1450
     63  CG        31.9950   28.2140   30.6720 C.2   269  ASP269      0.3671
     64  OD1       31.6640   27.1610   31.2700 O.co2 269  ASP269     -0.2456
     65  OD2       31.9780   28.3190   29.4200 O.co2 269  ASP269     -0.2456
     66  N         35.7520   28.5170   30.9030 N.am  270  ASN270     -0.1958
     67  CA        36.8620   28.6010   29.9440 C.3   270  ASN270      0.1819
     68  C         37.8800   29.7130   30.2330 C.2   270  ASN270      0.2621
     69  O         38.2760   30.4550   29.3270 O.2   270  ASN270     -0.2715
     70  CB        36.3380   28.7190   28.5020 C.3   270  ASN270      0.1195
     71  CG        35.9820   27.3820   27.8980 C.2   270  ASN270      0.2630
     72  OD1       36.7000   26.8750   27.0380 O.2   270  ASN270     -0.2716
     73  ND2       34.8740   26.8000   28.3410 N.am  270  ASN270     -0.0877
     74  N         38.2970   29.8210   31.4940 N.am  271  PHE271     -0.1960
     75  CA        39.3380   30.7730   31.8980 C.3   271  PHE271      0.1771
     76  C         40.0150   30.3280   33.1940 C.2   271  PHE271      0.2619
     77  O         39.3470   29.8210   34.1060 O.2   271  PHE271     -0.2715
     78  CB        38.7620   32.1850   32.0560 C.3   271  PHE271      0.0574
     79  CG        39.7800   33.2180   32.4590 C.ar  271  PHE271     -0.0200
     80  CD1       40.6090   33.8060   31.5090 C.ar  271  PHE271     -0.0042
     81  CD2       39.9080   33.6070   33.7920 C.ar  271  PHE271     -0.0042
     82  CE1       41.5550   34.7620   31.8770 C.ar  271  PHE271     -0.0003
     83  CE2       40.8520   34.5680   34.1720 C.ar  271  PHE271     -0.0003
     84  CZ        41.6770   35.1430   33.2130 C.ar  271  PHE271     -0.0000
     85  N         41.3340   30.5340   33.2710 N.am  272  PHE272     -0.1974
     86  CA        42.1070   30.1430   34.4530 C.3   272  PHE272      0.1639
     87  C         42.5130   31.3110   35.3400 C.2   272  PHE272      0.2290
     88  O         43.2460   32.2120   34.9190 O.2   272  PHE272     -0.2864
     89  CB        43.3440   29.3120   34.0810 C.3   272  PHE272      0.0560
     90  CG        44.2630   29.0350   35.2500 C.ar  272  PHE272     -0.0200
     91  CD1       45.5340   29.5980   35.2990 C.ar  272  PHE272     -0.0042
     92  CD2       43.8460   28.2290   36.3070 C.ar  272  PHE272     -0.0042
     93  CE1       46.3850   29.3510   36.3740 C.ar  272  PHE272     -0.0003
     94  CE2       44.6870   27.9740   37.3880 C.ar  272  PHE272     -0.0003
     95  CZ        45.9590   28.5370   37.4220 C.ar  272  PHE272     -0.0000
     96  N         41.1200   28.5470   45.1010 N.3   278  ARG278     -0.1245
     97  CA        40.8030   27.5520   44.0760 C.3   278  ARG278      0.1563
     98  C         41.7240   26.3340   44.1740 C.2   278  ARG278      0.2260
     99  O         41.2730   25.1940   44.0470 O.2   278  ARG278     -0.2867
    100  CB        40.8620   28.1710   42.6790 C.3   278  ARG278      0.0307
    101  CG        40.7800   27.1680   41.5280 C.3   278  ARG278      0.0489
    102  CD        39.4200   26.4640   41.4460 C.3   278  ARG278      0.2205
    103  NE        39.3160   25.7180   40.1950 N.pl3 278  ARG278     -0.0865
    104  CZ        38.1820   25.2830   39.6510 C.cat 278  ARG278      0.5346
    105  NH1       37.0140   25.5010   40.2440 N.pl3 278  ARG278      0.1354
    106  NH2       38.2250   24.6250   38.4990 N.pl3 278  ARG278      0.1354
    107  N         38.8830   17.1750   33.1990 N.3   316  ASP316     -0.1239
    108  CA        39.9010   18.2060   32.9330 C.3   316  ASP316      0.1674
    109  C         41.0160   18.1410   33.9870 C.2   316  ASP316      0.2266
    110  O         41.1290   17.1460   34.7010 O.2   316  ASP316     -0.2867
    111  CB        39.2800   19.6080   32.8150 C.3   316  ASP316      0.1410
    112  CG        40.0140   20.4750   31.8050 C.2   316  ASP316      0.3668
    113  OD1       39.6200   20.4880   30.6100 O.co2 316  ASP316     -0.2456
    114  OD2       41.0150   21.1130   32.2010 O.co2 316  ASP316     -0.2456
    115  N         41.3710   19.9900   36.6370 N.3   318  HIS318     -0.1241
    116  CA        40.9820   20.5160   37.9430 C.3   318  HIS318      0.1621
    117  C         41.3070   19.5720   39.1070 C.2   318  HIS318      0.2264
    118  O         41.7660   20.0360   40.1430 O.2   318  HIS318     -0.2867
    119  CB        39.5210   20.9980   37.9700 C.3   318  HIS318      0.0745
    120  CG        39.1400   21.8340   36.7860 C.ar  318  HIS318      0.0817
    121  ND1       37.8530   21.8880   36.2990 N.ar  318  HIS318     -0.2268
    122  CD2       39.8810   22.6330   35.9800 C.ar  318  HIS318      0.1154
    123  CE1       37.8150   22.6880   35.2470 C.ar  318  HIS318      0.1986
    124  NE2       39.0330   23.1560   35.0350 N.ar  318  HIS318     -0.2212
    125  N         38.9260   19.4300   27.9390 N.3   354  HIS354     -0.1226
    126  CA        37.6810   20.0890   27.5470 C.3   354  HIS354      0.1752
    127  C         37.8650   21.4430   26.8550 C.2   354  HIS354      0.2596
    128  O         36.8810   22.1260   26.5820 O.2   354  HIS354     -0.2718
    129  CB        36.7560   20.2740   28.7590 C.3   354  HIS354      0.0759
    130  CG        36.2920   18.9950   29.3770 C.ar  354  HIS354      0.0818
    131  ND1       35.1380   18.3540   28.9820 N.ar  354  HIS354     -0.2268
    132  CD2       36.8170   18.2460   30.3740 C.ar  354  HIS354      0.1154
    133  CE1       34.9760   17.2600   29.7030 C.ar  354  HIS354      0.1986
    134  NE2       35.9790   17.1750   30.5590 N.ar  354  HIS354     -0.2212
    135  N         39.1050   21.8420   26.5760 N.am  355  THR355     -0.1953
    136  CA        39.3490   23.1310   25.9130 C.3   355  THR355      0.1897
    137  C         40.7670   23.2740   25.3690 C.2   355  THR355      0.2313
    138  O         41.7160   22.7340   25.9460 O.2   355  THR355     -0.2863
    139  CB        39.0060   24.3460   26.8320 C.3   355  THR355      0.1794
    140  OG1       39.1460   25.5680   26.0940 O.3   355  THR355     -0.2208
    141  CG2       39.8970   24.3870   28.0660 C.3   355  THR355      0.0378
    142  N         42.6320   29.2720   29.2940 N.3   360  ALA360     -0.1245
    143  CA        41.8450   28.3880   30.1490 C.3   360  ALA360      0.1562
    144  C         42.6830   27.2960   30.8170 C.2   360  ALA360      0.2260
    145  O         42.2440   26.6940   31.7990 O.2   360  ALA360     -0.2867
    146  CB        40.6990   27.7670   29.3530 C.3   360  ALA360      0.0290
    147  N         45.3170   25.3460   33.0720 N.3   362  GLU362     -0.1245
    148  CA        45.8060   25.5540   34.4260 C.3   362  GLU362      0.1567
    149  C         47.3190   25.4890   34.4870 C.2   362  GLU362      0.2260
    150  O         47.9180   24.4560   34.1850 O.2   362  GLU362     -0.2867
    151  CB        45.2180   24.5200   35.3840 C.3   362  GLU362      0.0388
    152  CG        43.7340   24.6830   35.6330 C.3   362  GLU362      0.1160
    153  CD        43.2890   23.9110   36.8420 C.2   362  GLU362      0.3649
    154  OE1       43.3140   22.6660   36.7940 O.co2 362  GLU362     -0.2457
    155  OE2       42.9350   24.5520   37.8480 O.co2 362  GLU362     -0.2457
    156  N         36.7970   15.5110   23.3080 N.3   432  VAL432     -0.1245
    157  CA        35.3530   15.3460   23.5220 C.3   432  VAL432      0.1561
    158  C         34.5220   15.4420   22.2410 C.2   432  VAL432      0.2260
    159  O         33.2910   15.4750   22.2830 O.2   432  VAL432     -0.2867
    160  CB        34.8320   16.3190   24.6140 C.3   432  VAL432      0.0252
    161  CG1       35.3720   15.9090   25.9940 C.3   432  VAL432      0.0019
    162  CG2       35.2040   17.7700   24.3010 C.3   432  VAL432      0.0019
    163  N         31.1580   13.6710   23.0150 N.3   461  ASN461     -0.1240
    164  CA        30.1820   13.9700   24.0580 C.3   461  ASN461      0.1653
    165  C         28.7710   13.5190   23.6900 C.2   461  ASN461      0.2266
    166  O         28.4780   13.1920   22.5320 O.2   461  ASN461     -0.2867
    167  CB        30.1670   15.4780   24.3620 C.3   461  ASN461      0.1155
    168  CG        31.3030   15.9170   25.2810 C.2   461  ASN461      0.2627
    169  OD1       31.5560   17.1200   25.4400 O.2   461  ASN461     -0.2716
    170  ND2       31.9840   14.9580   25.8930 N.am  461  ASN461     -0.0877
    171  N         34.4720   33.6290   22.0080 N.3   550  TYR550     -0.1227
    172  CA        34.6130   32.5190   21.0620 C.3   550  TYR550      0.1736
    173  C         33.2670   31.9610   20.5960 C.2   550  TYR550      0.2595
    174  O         33.1620   31.4670   19.4780 O.2   550  TYR550     -0.2718
    175  CB        35.5580   31.4240   21.5780 C.3   550  TYR550      0.0548
    176  CG        34.9500   30.3180   22.4110 C.ar  550  TYR550     -0.0200
    177  CD1       34.3390   29.2220   21.8060 C.ar  550  TYR550     -0.0009
    178  CD2       35.0480   30.3330   23.8040 C.ar  550  TYR550     -0.0009
    179  CE1       33.8070   28.1830   22.5630 C.ar  550  TYR550      0.0417
    180  CE2       34.5150   29.2980   24.5750 C.ar  550  TYR550      0.0417
    181  CZ        33.9010   28.2250   23.9470 C.ar  550  TYR550      0.1957
    182  OH        33.3630   27.1960   24.6950 O.3   550  TYR550     -0.2866
    183  N         32.2480   32.0600   21.4450 N.am  551  LYS551     -0.1980
    184  CA        30.9060   31.5740   21.1050 C.3   551  LYS551      0.1596
    185  C         30.1770   32.5370   20.1580 C.2   551  LYS551      0.2287
    186  O         29.1470   32.1970   19.5680 O.2   551  LYS551     -0.2864
    187  CB        30.0950   31.3000   22.3760 C.3   551  LYS551      0.0298
    188  CG        30.6090   30.0900   23.1760 C.3   551  LYS551      0.0038
    189  CD        30.0210   30.0440   24.5780 C.3   551  LYS551      0.0206
    190  CE        30.5510   28.8730   25.4100 C.3   551  LYS551      0.1093
    191  NZ        30.0770   27.5430   24.8740 N.3   551  LYS551     -0.1314
    192  N         37.3120   26.2790   18.1190 N.3   648  THR648     -0.1203
    193  CA        37.2560   26.8470   19.4750 C.3   648  THR648      0.1994
    194  C         36.3040   26.1210   20.4360 C.2   648  THR648      0.2618
    195  O         36.5910   26.0140   21.6300 O.2   648  THR648     -0.2717
    196  CB        36.9070   28.3540   19.4590 C.3   648  THR648      0.1784
    197  OG1       35.6230   28.5510   18.8520 O.3   648  THR648     -0.2211
    198  CG2       37.9660   29.1530   18.6920 C.3   648  THR648      0.0376
    199  N         35.1730   25.6340   19.9290 N.am  649  GLU649     -0.1965
    200  CA        34.2310   24.8830   20.7620 C.3   649  GLU649      0.1733
    201  C         34.6210   23.4130   20.7400 C.2   649  GLU649      0.2616
    202  O         34.4120   22.7390   19.7340 O.2   649  GLU649     -0.2715
    203  CB        32.7890   25.0580   20.2620 C.3   649  GLU649      0.0429
    204  CG        31.7260   24.5570   21.2340 C.3   649  GLU649      0.1163
    205  CD        31.5950   25.4470   22.4570 C.2   649  GLU649      0.3649
    206  OE1       32.2370   25.1450   23.4760 O.co2 649  GLU649     -0.2457
    207  OE2       30.8710   26.4600   22.3940 O.co2 649  GLU649     -0.2457
    208  N         35.1960   22.9220   21.8390 N.am  650  ALA650     -0.1963
    209  CA        35.6960   21.5420   21.8900 C.3   650  ALA650      0.1728
    210  C         34.6410   20.5490   21.3970 C.2   650  ALA650      0.2617
    211  O         34.9230   19.6960   20.5560 O.2   650  ALA650     -0.2715
    212  CB        36.1600   21.1820   23.2930 C.3   650  ALA650      0.0334
    213  N         33.4230   20.6720   21.9130 N.am  651  SER651     -0.1936
    214  CA        32.3340   19.8170   21.4550 C.3   651  SER651      0.2055
    215  C         31.0400   20.6050   21.3450 C.2   651  SER651      0.2644
    216  O         30.4450   20.6910   20.2610 O.2   651  SER651     -0.2714
    217  CB        32.1650   18.6150   22.3870 C.3   651  SER651      0.2130
    218  OG        30.9750   17.8890   22.1100 O.3   651  SER651     -0.2179
    219  N         30.6320   21.2040   22.4630 N.am  652  GLY652     -0.1939
    220  CA        29.2710   21.6980   22.6210 C.3   652  GLY652      0.2014
    221  C         28.3760   20.5320   23.0120 C.2   652  GLY652      0.2639
    222  O         28.6070   19.3970   22.5930 O.2   652  GLY652     -0.2714
    223  N         27.3680   20.8010   23.8360 N.am  653  THR653     -0.1950
    224  CA        26.3630   19.7930   24.1790 C.3   653  THR653      0.1897
    225  C         24.9710   20.3850   24.0460 C.2   653  THR653      0.2313
    226  O         24.0040   19.6550   23.8240 O.2   653  THR653     -0.2863
    227  CB        26.5380   19.2320   25.6060 C.3   653  THR653      0.1794
    228  OG1       26.6490   20.3180   26.5270 O.3   653  THR653     -0.2208
    229  CG2       27.7820   18.3450   25.7000 C.3   653  THR653      0.0378
@<TRIPOS>BOND
     1   192   193    1
     2   198   196    1
     3   197   196    1
     4   196   193    1
     5   193   194    1
     6   174   173    2
     7   186   185    2
     8   202   201    2
     9   199   194   am
    10   199   200    1
    11   185   184    1
    12   216   215    2
    13   203   200    1
    14   203   204    1
    15   194   195    2
    16   211   210    2
    17   173   172    1
    18   173   183   am
    19   201   200    1
    20   201   208   am
    21   172   175    1
    22   172   171    1
    23   184   183    1
    24   184   187    1
    25   204   205    1
    26   215   214    1
    27   215   219   am
    28   210   209    1
    29   210   213   am
    30   214   213    1
    31   214   217    1
    32   175   176    1
    33   177   176   ar
    34   177   179   ar
    35   208   209    1
    36   209   212    1
    37   218   217    1
    38   158   159    2
    39   158   157    1
    40   187   188    1
    41   207   205   ar
    42   176   178   ar
    43   205   206   ar
    44   219   220    1
    45   166   165    2
    46   179   181   ar
    47   222   221    2
    48   220   221    1
    49   221   223   am
    50   163   164    1
    51   188   189    1
    52   156   157    1
    53   157   160    1
    54   165   164    1
    55   178   180   ar
    56   226   225    2
    57   223   224    1
    58   181   180   ar
    59   181   182    1
    60   225   224    1
    61   164   167    1
    62   224   227    1
    63   162   160    1
    64   167   168    1
    65   189   190    1
    66   160   161    1
    67   191   190    1
    68   168   169    2
    69   168   170   am
    70   137   136    1
    71   137   138    2
    72   227   229    1
    73   227   228    1
    74   136   135    1
    75   136   139    1
    76   140   139    1
    77   135   127   am
    78   128   127    2
    79   139   141    1
    80   127   126    1
    81    72    71    2
    82   126   125    1
    83   126   129    1
    84    71    73   am
    85    71    70    1
    86    36    35    1
    87    70    67    1
    88   129   130    1
    89   131   130   ar
    90   131   133   ar
    91    37    35    1
    92   142   143    1
    93    69    68    2
    94   146   143    1
    95   130   132   ar
    96    65    63   ar
    97    35    34    1
    98    19    20    1
    99    19    18    1
   100   133   134   ar
   101    67    68    1
   102    67    66    1
   103   143   144    1
   104    68    74   am
   105    21    20    2
   106    20    22   am
   107    34    31    1
   108   132   134   ar
   109    61    60    2
   110   113   112   ar
   111    63    64   ar
   112    63    62    1
   113   144   145    2
   114    66    60   am
   115    22    23    1
   116    31    30    1
   117    31    32    1
   118    60    59    1
   119    74    75    1
   120    62    59    1
   121    80    82   ar
   122    80    79   ar
   123    23    26    1
   124    23    24    1
   125   112   114   ar
   126   112   111    1
   127    82    84   ar
   128    75    78    1
   129    75    76    1
   130    78    79    1
   131    33    32    2
   132    26    27    1
   133    59    58    1
   134    79    81   ar
   135    28    27    1
   136   111   108    1
   137    24    25    2
   138   108   107    1
   139   108   109    1
   140    27    29    1
   141   147   148    1
   142    76    85   am
   143    76    77    2
   144    84    83   ar
   145    58    52   am
   146    85    86    1
   147    13    12    2
   148    81    83   ar
   149    12    11    1
   150   109   110    2
   151    89    86    1
   152    89    90    1
   153   150   149    2
   154    52    53    2
   155    52    51    1
   156   148   149    1
   157   148   151    1
   158    86    87    1
   159    14    11    1
   160    14    15    1
   161    88    87    2
   162   124   123   ar
   163   124   122   ar
   164    11    10    1
   165   123   121   ar
   166    90    91   ar
   167    90    92   ar
   168    91    93   ar
   169    51    54    1
   170    51    50    1
   171   151   152    1
   172    54    55    1
   173   152   153    1
   174     9     7   ar
   175   122   120   ar
   176    15    16    2
   177    15    17   am
   178    56    55    2
   179   121   120   ar
   180    92    94   ar
   181    55    57   am
   182    93    95   ar
   183     8     7   ar
   184   115   116    1
   185     7     6    1
   186   120   119    1
   187   154   153   ar
   188   153   155   ar
   189    94    95   ar
   190     5     6    1
   191     5     2    1
   192     4     3    2
   193   116   119    1
   194   116   117    1
   195   106   104    1
   196     3     2    1
   197     2     1    1
   198    41    40    2
   199   117   118    2
   200   104   103    2
   201   104   105    1
   202    40    39    1
   203   103   102    1
   204    42    39    1
   205    42    43    1
   206    39    38    1
   207   102   101    1
   208   101   100    1
   209    45    43   ar
   210    45    47   ar
   211    43    44   ar
   212    47    48   ar
   213   100    97    1
   214    44    46   ar
   215    48    46   ar
   216    48    49    1
   217    99    98    2
   218    97    98    1
   219    97    96    1
