@<TRIPOS>MOLECULE
tmp/3cv0A00.pdb
 227 213 0 0 0
SMALL
GASTEIGER

@<TRIPOS>ATOM
      1  N         -5.5450   -1.5090    9.3610 N.3    69  GLU69      -0.1245
      2  CA        -4.7260   -2.7020    9.1270 C.3    69  GLU69       0.1567
      3  C         -4.0680   -2.6580    7.7360 C.2    69  GLU69       0.2260
      4  O         -3.7610   -3.6880    7.1450 O.2    69  GLU69      -0.2867
      5  CB        -5.5990   -3.9480    9.3800 C.3    69  GLU69       0.0388
      6  CG        -4.9450   -5.2770    9.6430 C.3    69  GLU69       0.1160
      7  CD        -3.7500   -5.2350   10.5450 C.2    69  GLU69       0.3649
      8  OE1       -3.8950   -4.9850   11.7490 O.co2  69  GLU69      -0.2457
      9  OE2       -2.6570   -5.4950   10.0440 O.co2  69  GLU69      -0.2457
     10  N         -0.8740   -0.9020    6.5960 N.3    71  ASP71      -0.1239
     11  CA         0.3790   -0.1760    6.7500 C.3    71  ASP71       0.1674
     12  C          1.0100    0.3490    5.4530 C.2    71  ASP71       0.2266
     13  O          1.6580    1.3980    5.4570 O.2    71  ASP71      -0.2867
     14  CB         1.4250   -1.0180    7.4490 C.3    71  ASP71       0.1410
     15  CG         1.1450   -1.1940    8.9400 C.2    71  ASP71       0.3668
     16  OD1        0.7740   -0.2120    9.6260 O.co2  71  ASP71      -0.2456
     17  OD2        1.3030   -2.3260    9.4180 O.co2  71  ASP71      -0.2456
     18  N          5.7570    3.4210   13.6500 N.3    97  VAL97      -0.1245
     19  CA         4.9060    2.2770   13.9140 C.3    97  VAL97       0.1561
     20  C          4.6460    1.4340   12.6520 C.2    97  VAL97       0.2260
     21  O          4.8420    0.2260   12.6820 O.2    97  VAL97      -0.2867
     22  CB         3.6040    2.6980   14.5630 C.3    97  VAL97       0.0252
     23  CG1        2.6440    1.4930   14.6500 C.3    97  VAL97       0.0019
     24  CG2        3.8820    3.2960   15.9560 C.3    97  VAL97       0.0019
     25  N          7.8460   -0.2770   11.6160 N.3   100  THR100     -0.1203
     26  CA         8.1460   -1.3640   12.5320 C.3   100  THR100      0.1994
     27  C          7.3310   -2.5980   12.1300 C.2   100  THR100      0.2617
     28  O          7.8830   -3.6780   12.0050 O.2   100  THR100     -0.2717
     29  CB         7.9200   -0.9340   14.0060 C.3   100  THR100      0.1784
     30  OG1        8.7950    0.1610   14.2880 O.3   100  THR100     -0.2211
     31  CG2        8.1490   -2.0800   15.0090 C.3   100  THR100      0.0376
     32  N          6.0350   -2.4380   11.8960 N.am  101  ASN101     -0.1974
     33  CA         5.2070   -3.5530   11.4530 C.3   101  ASN101      0.1688
     34  C          5.7230   -4.1320   10.1360 C.2   101  ASN101      0.2292
     35  O          5.7610   -5.3580    9.9630 O.2   101  ASN101     -0.2864
     36  CB         3.7180   -3.1370   11.3100 C.3   101  ASN101      0.1181
     37  CG         3.0660   -2.7400   12.6580 C.2   101  ASN101      0.2629
     38  OD1        3.4600   -3.1920   13.7270 O.2   101  ASN101     -0.2716
     39  ND2        2.0880   -1.8820   12.5910 N.am  101  ASN101     -0.0877
     40  N          8.6620   -4.2320    9.1530 N.3   103  HIS103     -0.1241
     41  CA        10.0470   -4.6130    9.3140 C.3   103  HIS103      0.1621
     42  C         10.9650   -3.8310    8.3890 C.2   103  HIS103      0.2264
     43  O         11.8620   -4.4040    7.7910 O.2   103  HIS103     -0.2867
     44  CB        10.2410   -6.1500    9.1460 C.3   103  HIS103      0.0745
     45  CG         9.5130   -6.9440   10.1840 C.ar  103  HIS103      0.0817
     46  ND1        8.2540   -7.4560    9.9800 N.ar  103  HIS103     -0.2268
     47  CD2        9.8410   -7.2540   11.4560 C.ar  103  HIS103      0.1154
     48  CE1        7.8380   -8.0550   11.0810 C.ar  103  HIS103      0.1986
     49  NE2        8.7900   -7.9600   11.9870 N.ar  103  HIS103     -0.2212
     50  N          8.0500    1.0880   20.9920 N.3   160  VAL160     -0.1245
     51  CA         8.2400    0.8090   19.5580 C.3   160  VAL160      0.1561
     52  C          9.6910    0.4540   19.2460 C.2   160  VAL160      0.2260
     53  O          9.9560   -0.5900   18.6410 O.2   160  VAL160     -0.2867
     54  CB         7.7930    2.0140   18.7010 C.3   160  VAL160      0.0252
     55  CG1        8.0310    1.7550   17.2070 C.3   160  VAL160      0.0019
     56  CG2        6.3520    2.3450   18.9930 C.3   160  VAL160      0.0019
     57  N         10.2970   -2.9920   20.4430 N.3   163  ASN163     -0.1240
     58  CA         9.6420   -3.9640   19.5750 C.3   163  ASN163      0.1653
     59  C         10.5200   -4.3090   18.3860 C.2   163  ASN163      0.2266
     60  O         10.6230   -5.4650   18.0050 O.2   163  ASN163     -0.2867
     61  CB         8.2870   -3.4720   19.0760 C.3   163  ASN163      0.1155
     62  CG         7.1850   -3.8250   20.0010 C.2   163  ASN163      0.2627
     63  OD1        6.9180   -3.1140   20.9860 O.2   163  ASN163     -0.2716
     64  ND2        6.5380   -4.9380   19.7200 N.am  163  ASN163     -0.0877
     65  N         10.9250   -7.5600   24.0850 N.3   168  TYR168     -0.1241
     66  CA         9.5140   -7.4170   24.4380 C.3   168  TYR168      0.1605
     67  C          9.2770   -7.1330   25.8960 C.2   168  TYR168      0.2264
     68  O          8.2830   -6.4930   26.2300 O.2   168  TYR168     -0.2867
     69  CB         8.7040   -8.6330   24.0020 C.3   168  TYR168      0.0534
     70  CG         8.7070   -8.7940   22.5060 C.ar  168  TYR168     -0.0201
     71  CD1        8.0920   -7.8540   21.6900 C.ar  168  TYR168     -0.0009
     72  CD2        9.3790   -9.8610   21.9030 C.ar  168  TYR168     -0.0009
     73  CE1        8.1330   -7.9870   20.2910 C.ar  168  TYR168      0.0417
     74  CE2        9.4070  -10.0140   20.5240 C.ar  168  TYR168      0.0417
     75  CZ         8.7780   -9.0870   19.7330 C.ar  168  TYR168      0.1957
     76  OH         8.8100   -9.2460   18.3840 O.3   168  TYR168     -0.2866
     77  N          5.5290    0.5230   27.6560 N.3   175  LEU175     -0.1245
     78  CA         4.1590    0.7330   27.1740 C.3   175  LEU175      0.1561
     79  C          3.1650    0.5880   28.3130 C.2   175  LEU175      0.2260
     80  O          2.1340    1.2580   28.3250 O.2   175  LEU175     -0.2867
     81  CB         3.8290   -0.2070   26.0160 C.3   175  LEU175      0.0270
     82  CG         4.3640    0.2830   24.6950 C.3   175  LEU175      0.0019
     83  CD1        4.5100   -0.8870   23.7380 C.3   175  LEU175      0.0001
     84  CD2        3.4740    1.4340   24.0700 C.3   175  LEU175      0.0001
     85  N         -3.3890   -0.9670   22.3740 N.3   190  ASN190     -0.1225
     86  CA        -3.1070   -1.8520   21.2360 C.3   190  ASN190      0.1785
     87  C         -1.6300   -2.1440   21.1470 C.2   190  ASN190      0.2597
     88  O         -1.2400   -3.2970   20.9580 O.2   190  ASN190     -0.2718
     89  CB        -3.5640   -1.3160   19.8820 C.3   190  ASN190      0.1169
     90  CG        -3.2740   -2.3180   18.7590 C.2   190  ASN190      0.2627
     91  OD1       -3.8820   -3.3930   18.7010 O.2   190  ASN190     -0.2716
     92  ND2       -2.3030   -1.9990   17.9050 N.am  190  ASN190     -0.0877
     93  N         -0.8200   -1.0930   21.2640 N.am  191  LYS191     -0.1980
     94  CA         0.6220   -1.2270   21.1970 C.3   191  LYS191      0.1596
     95  C          1.1250   -2.1390   22.3040 C.2   191  LYS191      0.2287
     96  O          1.9690   -3.0090   22.0630 O.2   191  LYS191     -0.2864
     97  CB         1.3040    0.1500   21.2340 C.3   191  LYS191      0.0298
     98  CG         1.2830    0.8070   19.8850 C.3   191  LYS191      0.0038
     99  CD         1.4020    2.3180   19.8800 C.3   191  LYS191      0.0206
    100  CE         1.2250    2.7950   18.4270 C.3   191  LYS191      0.1093
    101  NZ         1.0790    4.2480   18.2840 N.3   191  LYS191     -0.1314
    102  N         -0.0480   -5.9250   21.3450 N.3   194  ALA194     -0.1231
    103  CA         0.8410   -6.4730   20.2770 C.3   194  ALA194      0.1694
    104  C          2.2250   -6.8430   20.8130 C.2   194  ALA194      0.2592
    105  O          2.8000   -7.8940   20.4710 O.2   194  ALA194     -0.2718
    106  CB         1.0020   -5.4620   19.1440 C.3   194  ALA194      0.0304
    107  N          2.7380   -5.9890   21.6900 N.am  195  THR195     -0.1953
    108  CA         4.0200   -6.2360   22.3510 C.3   195  THR195      0.1897
    109  C          3.9320   -7.5120   23.1800 C.2   195  THR195      0.2313
    110  O          4.7820   -8.3630   23.0670 O.2   195  THR195     -0.2863
    111  CB         4.4310   -5.0550   23.2620 C.3   195  THR195      0.1794
    112  OG1        4.4460   -3.8520   22.4800 O.3   195  THR195     -0.2208
    113  CG2        5.8550   -5.3040   23.9180 C.3   195  THR195      0.0378
    114  N          1.7230   -9.9720   22.9540 N.3   197  ALA197     -0.1231
    115  CA         1.4590  -11.0700   22.0220 C.3   197  ALA197      0.1694
    116  C          2.7270  -11.5240   21.3220 C.2   197  ALA197      0.2592
    117  O          3.0400  -12.7190   21.2980 O.2   197  ALA197     -0.2718
    118  CB         0.4230  -10.6570   20.9940 C.3   197  ALA197      0.0304
    119  N          3.4660  -10.5730   20.7590 N.am  198  ASN198     -0.1974
    120  CA         4.6960  -10.8920   20.0810 C.3   198  ASN198      0.1688
    121  C          5.7280  -11.4830   21.0480 C.2   198  ASN198      0.2292
    122  O          6.5710  -12.2500   20.6180 O.2   198  ASN198     -0.2864
    123  CB         5.2570   -9.6860   19.3010 C.3   198  ASN198      0.1181
    124  CG         4.4160   -9.3370   18.0560 C.2   198  ASN198      0.2629
    125  OD1        3.6380  -10.1550   17.5580 O.2   198  ASN198     -0.2716
    126  ND2        4.5400   -8.1040   17.5980 N.am  198  ASN198     -0.0877
    127  N          4.9740  -13.6430   23.4210 N.3   200  ASN200     -0.1240
    128  CA         4.3610  -14.9010   23.8760 C.3   200  ASN200      0.1653
    129  C          3.5390  -14.7720   25.1510 C.2   200  ASN200      0.2266
    130  O          3.4830  -15.6810   25.9880 O.2   200  ASN200     -0.2867
    131  CB         5.4320  -16.0050   23.9630 C.3   200  ASN200      0.1155
    132  CG         6.1790  -16.1670   22.6370 C.2   200  ASN200      0.2627
    133  OD1        7.4100  -16.2930   22.5810 O.2   200  ASN200     -0.2716
    134  ND2        5.4230  -16.1100   21.5560 N.am  200  ASN200     -0.0877
    135  N         -6.2000   -5.6110   24.4830 N.3   209  TYR209     -0.1241
    136  CA        -7.0880   -5.4200   23.3140 C.3   209  TYR209      0.1605
    137  C         -8.5460   -5.1260   23.7150 C.2   209  TYR209      0.2264
    138  O         -9.1910   -4.2330   23.1530 O.2   209  TYR209     -0.2867
    139  CB        -7.0410   -6.6300   22.3720 C.3   209  TYR209      0.0534
    140  CG        -5.6810   -6.9820   21.8180 C.ar  209  TYR209     -0.0201
    141  CD1       -4.8010   -5.9910   21.3790 C.ar  209  TYR209     -0.0009
    142  CD2       -5.2990   -8.3070   21.6580 C.ar  209  TYR209     -0.0009
    143  CE1       -3.5820   -6.3120   20.8410 C.ar  209  TYR209      0.0417
    144  CE2       -4.0750   -8.6330   21.1340 C.ar  209  TYR209      0.0417
    145  CZ        -3.2090   -7.6230   20.7310 C.ar  209  TYR209      0.1957
    146  OH        -1.9730   -7.9200   20.1780 O.3   209  TYR209     -0.2866
    147  N        -11.8730   -0.2070   15.7760 N.3   219  TYR219     -0.1241
    148  CA       -10.4080   -0.3040   15.6360 C.3   219  TYR219      0.1605
    149  C        -10.0670   -1.6960   15.0860 C.2   219  TYR219      0.2264
    150  O         -9.8190   -2.6520   15.8170 O.2   219  TYR219     -0.2867
    151  CB        -9.7760   -0.0350   17.0130 C.3   219  TYR219      0.0534
    152  CG        -8.2850    0.3000   17.1110 C.ar  219  TYR219     -0.0201
    153  CD1       -7.3780    0.0480   16.0720 C.ar  219  TYR219     -0.0009
    154  CD2       -7.7760    0.8360   18.3060 C.ar  219  TYR219     -0.0009
    155  CE1       -5.9930    0.3470   16.2230 C.ar  219  TYR219      0.0417
    156  CE2       -6.4300    1.1320   18.4540 C.ar  219  TYR219      0.0417
    157  CZ        -5.5470    0.8950   17.4220 C.ar  219  TYR219      0.1957
    158  OH        -4.2160    1.1970   17.6320 O.3   219  TYR219     -0.2866
    159  N         -7.5180   -2.9570   13.3660 N.3   221  ARG221     -0.1245
    160  CA        -6.2360   -3.5410   13.7450 C.3   221  ARG221      0.1563
    161  C         -6.2890   -4.3140   15.1100 C.2   221  ARG221      0.2260
    162  O         -5.7060   -5.3940   15.2570 O.2   221  ARG221     -0.2867
    163  CB        -5.1800   -2.4440   13.7730 C.3   221  ARG221      0.0307
    164  CG        -3.8700   -2.8450   14.4220 C.3   221  ARG221      0.0489
    165  CD        -2.7200   -2.0760   13.8090 C.3   221  ARG221      0.2205
    166  NE        -2.4080   -2.6660   12.5090 N.pl3 221  ARG221     -0.0865
    167  CZ        -1.5260   -2.1790   11.6410 C.cat 221  ARG221      0.5346
    168  NH1       -0.8080   -1.0940   11.9260 N.pl3 221  ARG221      0.1354
    169  NH2       -1.3210   -2.8300   10.5060 N.pl3 221  ARG221      0.1354
    170  N         -8.1490   -7.5930   14.3150 N.3   224  TYR224     -0.1227
    171  CA        -7.1370   -8.4850   13.7290 C.3   224  TYR224      0.1736
    172  C         -6.2200   -9.0940   14.8030 C.2   224  TYR224      0.2595
    173  O         -6.0500  -10.3100   14.8670 O.2   224  TYR224     -0.2718
    174  CB        -6.2990   -7.7440   12.6790 C.3   224  TYR224      0.0548
    175  CG        -5.1910   -8.5840   12.1200 C.ar  224  TYR224     -0.0200
    176  CD1       -5.4600   -9.5710   11.1690 C.ar  224  TYR224     -0.0009
    177  CD2       -3.8730   -8.4370   12.5710 C.ar  224  TYR224     -0.0009
    178  CE1       -4.4550  -10.3710   10.6840 C.ar  224  TYR224      0.0417
    179  CE2       -2.8600   -9.2440   12.0910 C.ar  224  TYR224      0.0417
    180  CZ        -3.1600  -10.1920   11.1500 C.ar  224  TYR224      0.1957
    181  OH        -2.1690  -10.9980   10.6690 O.3   224  TYR224     -0.2866
    182  N         -5.6440   -8.2370   15.6370 N.am  225  ASN225     -0.1974
    183  CA        -4.7050   -8.6560   16.6720 C.3   225  ASN225      0.1688
    184  C         -5.3550   -9.6440   17.6730 C.2   225  ASN225      0.2292
    185  O         -4.7120  -10.5730   18.1170 O.2   225  ASN225     -0.2864
    186  CB        -4.1220   -7.4430   17.4260 C.3   225  ASN225      0.1181
    187  CG        -2.9290   -6.7760   16.7110 C.2   225  ASN225      0.2629
    188  OD1       -2.2560   -7.3530   15.8420 O.2   225  ASN225     -0.2716
    189  ND2       -2.6600   -5.5350   17.1060 N.am  225  ASN225     -0.0877
    190  N         -5.4310  -12.9770   15.9910 N.3   228  VAL228     -0.1231
    191  CA        -4.0840  -13.5120   16.0800 C.3   228  VAL228      0.1692
    192  C         -3.7920  -14.1230   17.4450 C.2   228  VAL228      0.2592
    193  O         -3.2100  -15.1940   17.5070 O.2   228  VAL228     -0.2718
    194  CB        -3.0050  -12.4530   15.7130 C.3   228  VAL228      0.0266
    195  CG1       -1.6340  -12.9050   16.1120 C.3   228  VAL228      0.0020
    196  CG2       -3.0390  -12.1770   14.2300 C.3   228  VAL228      0.0020
    197  N         -4.1450  -13.4360   18.5370 N.am  229  SER229     -0.1952
    198  CA        -3.8030  -13.9570   19.8780 C.3   229  SER229      0.1924
    199  C         -4.6250  -15.2320   20.1850 C.2   229  SER229      0.2314
    200  O         -4.1120  -16.2010   20.7700 O.2   229  SER229     -0.2863
    201  CB        -4.0120  -12.8940   20.9800 C.3   229  SER229      0.2116
    202  OG        -2.8480  -12.0870   21.1900 O.3   229  SER229     -0.2180
    203  N         -5.8640  -17.3090   17.9280 N.3   231  SER231     -0.1202
    204  CA        -5.2910  -18.3520   17.0760 C.3   231  SER231      0.2020
    205  C         -3.9670  -18.8690   17.6980 C.2   231  SER231      0.2618
    206  O         -3.7310  -20.0700   17.7210 O.2   231  SER231     -0.2717
    207  CB        -5.0880  -17.8180   15.6580 C.3   231  SER231      0.2103
    208  OG        -4.3840  -18.7580   14.8550 O.3   231  SER231     -0.2182
    209  N         -3.1450  -17.9650   18.2280 N.am  232  ASN232     -0.1974
    210  CA        -1.9030  -18.3570   18.8960 C.3   232  ASN232      0.1688
    211  C         -2.1490  -19.2640   20.1230 C.2   232  ASN232      0.2292
    212  O         -1.3270  -20.1130   20.4270 O.2   232  ASN232     -0.2864
    213  CB        -1.0740  -17.1300   19.2870 C.3   232  ASN232      0.1181
    214  CG        -0.4520  -16.4250   18.0780 C.2   232  ASN232      0.2629
    215  OD1       -0.5120  -16.9120   16.9390 O.2   232  ASN232     -0.2716
    216  ND2        0.1610  -15.2770   18.3280 N.am  232  ASN232     -0.0877
    217  N         -5.8300  -16.5820    5.8950 N.3   266  PHE266     -0.1241
    218  CA        -5.6810  -16.8490    7.3170 C.3   266  PHE266      0.1605
    219  C         -6.9670  -17.4670    7.8950 C.2   266  PHE266      0.2264
    220  O         -6.9330  -18.4900    8.5670 O.2   266  PHE266     -0.2867
    221  CB        -5.2360  -15.5310    8.0140 C.3   266  PHE266      0.0534
    222  CG        -5.1960  -15.5820    9.5250 C.ar  266  PHE266     -0.0203
    223  CD1       -4.5830  -16.6290   10.2030 C.ar  266  PHE266     -0.0042
    224  CD2       -5.6980  -14.5110   10.2740 C.ar  266  PHE266     -0.0042
    225  CE1       -4.5510  -16.6520   11.5940 C.ar  266  PHE266     -0.0003
    226  CE2       -5.6540  -14.5300   11.6700 C.ar  266  PHE266     -0.0003
    227  CZ        -5.0900  -15.6050   12.3270 C.ar  266  PHE266     -0.0000
@<TRIPOS>BOND
     1    12    13    2
     2    12    11    1
     3   217   218    1
     4    10    11    1
     5    11    14    1
     6     4     3    2
     7   218   219    1
     8   218   221    1
     9    14    15    1
    10     3     2    1
    11    43    42    2
    12   219   220    2
    13   221   222    1
    14    42    41    1
    15    15    17   ar
    16    15    16   ar
    17     2     1    1
    18     2     5    1
    19    44    41    1
    20    44    45    1
    21    40    41    1
    22     5     6    1
    23   222   223   ar
    24   222   224   ar
    25     6     7    1
    26    35    34    2
    27    46    45   ar
    28    46    48   ar
    29     9     7   ar
    30    34    33    1
    31    45    47   ar
    32   223   225   ar
    33   224   226   ar
    34   169   167    1
    35     7     8   ar
    36   181   180    1
    37   178   180   ar
    38   178   176   ar
    39    48    49   ar
    40   180   179   ar
    41   176   175   ar
    42    36    33    1
    43    36    37    1
    44    33    32    1
    45    47    49   ar
    46   225   227   ar
    47    25    26    1
    48   167   168    1
    49   167   166    2
    50   226   227   ar
    51    32    27   am
    52    28    27    2
    53   179   177   ar
    54   175   177   ar
    55   175   174    1
    56    27    26    1
    57   166   165    1
    58    26    29    1
    59    39    37   am
    60    20    21    2
    61    20    19    1
    62    37    38    2
    63   174   171    1
    64   159   160    1
    65    18    19    1
    66   171   170    1
    67   171   172    1
    68   160   163    1
    69   160   161    1
    70   163   164    1
    71   165   164    1
    72    19    22    1
    73    29    30    1
    74    29    31    1
    75   196   194    1
    76    22    23    1
    77    22    24    1
    78   172   173    2
    79   172   182   am
    80   208   207    1
    81   149   148    1
    82   149   150    2
    83   161   162    2
    84   148   147    1
    85   148   151    1
    86   182   183    1
    87   207   204    1
    88   194   191    1
    89   194   195    1
    90   188   187    2
    91   190   191    1
    92   153   155   ar
    93   153   152   ar
    94   191   192    1
    95   155   157   ar
    96   183   186    1
    97   183   184    1
    98   187   189   am
    99   187   186    1
   100   215   214    2
   101   151   152    1
   102   204   205    1
   103   204   203    1
   104   152   154   ar
   105    55    54    1
   106   157   158    1
   107   157   156   ar
   108   192   193    2
   109   192   197   am
   110   125   124    2
   111   126   124   am
   112   184   185    2
   113   205   206    2
   114   205   209   am
   115    92    90   am
   116    60    59    2
   117   124   123    1
   118   214   216   am
   119   214   213    1
   120   209   210    1
   121   101   100    1
   122   154   156   ar
   123    76    75    1
   124    59    58    1
   125   100    99    1
   126   197   198    1
   127    53    52    2
   128    54    56    1
   129    54    51    1
   130    91    90    2
   131    90    89    1
   132   210   213    1
   133   210   211    1
   134    61    58    1
   135    61    62    1
   136   106   103    1
   137    52    51    1
   138   123   120    1
   139    51    50    1
   140    58    57    1
   141    64    62   am
   142    75    73   ar
   143    75    74   ar
   144   198   199    1
   145   198   201    1
   146    99    98    1
   147    89    86    1
   148    98    97    1
   149    62    63    2
   150   120   119    1
   151   120   121    1
   152   211   212    2
   153   146   145    1
   154   199   200    2
   155   103   104    1
   156   103   102    1
   157    73    71   ar
   158   105   104    2
   159    74    72   ar
   160   122   121    2
   161   145   143   ar
   162   145   144   ar
   163   119   116   am
   164   104   107   am
   165   143   141   ar
   166    88    87    2
   167   201   202    1
   168   118   115    1
   169   144   142   ar
   170    87    86    1
   171    87    93   am
   172    94    97    1
   173    94    93    1
   174    94    95    1
   175    86    85    1
   176   117   116    2
   177   116   115    1
   178   141   140   ar
   179   134   132   am
   180   142   140   ar
   181   107   108    1
   182    71    70   ar
   183   140   139    1
   184    72    70   ar
   185   115   114    1
   186    96    95    2
   187   108   109    1
   188   108   111    1
   189   139   136    1
   190   112   111    1
   191    70    69    1
   192   133   132    2
   193   132   131    1
   194   110   109    2
   195   138   137    2
   196   111   113    1
   197   136   137    1
   198   136   135    1
   199   127   128    1
   200    83    82    1
   201   128   131    1
   202   128   129    1
   203    69    66    1
   204    84    82    1
   205    65    66    1
   206    66    67    1
   207    82    81    1
   208   129   130    2
   209    67    68    2
   210    81    78    1
   211    78    77    1
   212    78    79    1
   213    79    80    2
