@<TRIPOS>MOLECULE
tmp/3cv2B00.pdb
 138 134 0 0 0
SMALL
GASTEIGER

@<TRIPOS>ATOM
      1  N         27.6780    6.9760   25.9890 N.3    86  ILE86      -0.1231
      2  CA        27.4240    7.9180   24.9100 C.3    86  ILE86       0.1692
      3  C         27.4940    7.1630   23.5860 C.2    86  ILE86       0.2593
      4  O         28.3590    6.3050   23.3840 O.2    86  ILE86      -0.2718
      5  CB        28.4060    9.1180   24.9350 C.3    86  ILE86       0.0266
      6  CG1       28.0520   10.1420   23.8490 C.3    86  ILE86       0.0019
      7  CG2       29.8530    8.6600   24.8040 C.3    86  ILE86       0.0020
      8  CD1       28.7290   11.4790   24.0850 C.3    86  ILE86       0.0001
      9  N         26.5750    7.4880   22.6790 N.am   87  THR87      -0.1939
     10  CA        26.5750    6.9380   21.3460 C.3    87  THR87       0.2028
     11  C         27.0660    8.0090   20.3970 C.2    87  THR87       0.2643
     12  O         26.7810    9.1870   20.5730 O.2    87  THR87      -0.2714
     13  CB        25.1420    6.4960   20.9390 C.3    87  THR87       0.1808
     14  OG1       24.2660    7.6370   20.9070 O.3    87  THR87      -0.2208
     15  CG2       24.5880    5.4710   21.9180 C.3    87  THR87       0.0379
     16  N         27.8040    7.5930   19.3800 N.am   88  GLY88      -0.1940
     17  CA        28.1140    8.4880   18.2580 C.3    88  GLY88       0.1998
     18  C         28.6780    7.7570   17.0700 C.2    88  GLY88       0.2480
     19  O         29.1690    6.6430   17.2010 O.2    88  GLY88      -0.2729
     20  N         28.5740    8.3680   15.8800 N.am   89  PRO89      -0.2726
     21  CA        29.1390    7.7370   14.7010 C.3    89  PRO89       0.1402
     22  C         30.6760    7.7010   14.7300 C.2    89  PRO89       0.2269
     23  O         31.3040    8.3920   15.5080 O.2    89  PRO89      -0.2865
     24  CB        28.6050    8.5990   13.5520 C.3    89  PRO89       0.0296
     25  CG        28.2950    9.8990   14.1710 C.3    89  PRO89       0.0237
     26  CD        27.8980    9.6370   15.5710 C.3    89  PRO89       0.0939
     27  N         37.0330   12.9050   14.8510 N.3    93  LYS93      -0.1231
     28  CA        36.8810   13.8570   15.9470 C.3    93  LYS93       0.1693
     29  C         35.8240   13.3930   16.9540 C.2    93  LYS93       0.2591
     30  O         36.0010   13.4950   18.1670 O.2    93  LYS93      -0.2718
     31  CB        36.5150   15.2510   15.4220 C.3    93  LYS93       0.0285
     32  CG        36.5100   16.2860   16.5070 C.3    93  LYS93       0.0035
     33  CD        36.2100   17.6710   15.9580 C.3    93  LYS93       0.0206
     34  CE        34.7720   18.0570   16.1140 C.3    93  LYS93       0.1093
     35  NZ        34.6380   19.5490   16.2110 N.3    93  LYS93      -0.1314
     36  N         34.7190   12.8740   16.4390 N.am   94  MET94      -0.1979
     37  CA        33.6420   12.4060   17.3000 C.3    94  MET94       0.1605
     38  C         34.0850   11.2790   18.2300 C.2    94  MET94       0.2287
     39  O         33.7140   11.2280   19.3980 O.2    94  MET94      -0.2864
     40  CB        32.5010   11.9040   16.4310 C.3    94  MET94       0.0413
     41  CG        31.6130   13.0050   15.9640 C.3    94  MET94       0.0598
     42  SD        30.1740   13.1280   17.0410 S.3    94  MET94      -0.1393
     43  CE        28.9930   13.6030   15.7860 C.3    94  MET94       0.0692
     44  N         36.1390   12.8650   21.0190 N.3    97  ASN97      -0.1225
     45  CA        35.2770   13.5900   21.9460 C.3    97  ASN97       0.1785
     46  C         34.3980   12.6640   22.7890 C.2    97  ASN97       0.2597
     47  O         34.1830   12.9170   23.9750 O.2    97  ASN97      -0.2718
     48  CB        34.3810   14.5730   21.2020 C.3    97  ASN97       0.1169
     49  CG        35.0660   15.8870   20.8860 C.2    97  ASN97       0.2627
     50  OD1       36.0670   16.2640   21.5030 O.2    97  ASN97      -0.2716
     51  ND2       34.5050   16.6060   19.9160 N.am   97  ASN97      -0.0877
     52  N         33.9060   11.5850   22.1880 N.am   98  ALA98      -0.1979
     53  CA        33.0580   10.6350   22.9130 C.3    98  ALA98       0.1597
     54  C         33.8680    9.8730   23.9410 C.2    98  ALA98       0.2287
     55  O         33.4630    9.7340   25.1050 O.2    98  ALA98      -0.2864
     56  CB        32.4000    9.6700   21.9570 C.3    98  ALA98       0.0319
     57  N         43.5340   23.3670   16.1700 N.3   144  LYS144     -0.1245
     58  CA        43.2930   22.7790   17.4860 C.3   144  LYS144      0.1561
     59  C         43.5060   21.2740   17.3960 C.2   144  LYS144      0.2260
     60  O         42.8950   20.6080   16.5500 O.2   144  LYS144     -0.2867
     61  CB        41.8750   23.0650   17.9820 C.3   144  LYS144      0.0271
     62  CG        41.6200   22.5430   19.3890 C.3   144  LYS144      0.0035
     63  CD        40.2140   22.8550   19.8980 C.3   144  LYS144      0.0206
     64  CE        39.8920   22.0320   21.1410 C.3   144  LYS144      0.1093
     65  NZ        38.6370   22.4540   21.8200 N.3   144  LYS144     -0.1314
     66  N         43.1920   17.4770   18.9330 N.3   146  TYR146     -0.1241
     67  CA        42.3610   16.6400   19.7940 C.3   146  TYR146      0.1605
     68  C         43.0840   15.3260   20.0200 C.2   146  TYR146      0.2264
     69  O         43.5050   14.6980   19.0650 O.2   146  TYR146     -0.2867
     70  CB        41.0380   16.3230   19.0930 C.3   146  TYR146      0.0534
     71  CG        40.0660   17.4670   19.0450 C.ar  146  TYR146     -0.0201
     72  CD1       38.9460   17.4800   19.8760 C.ar  146  TYR146     -0.0009
     73  CD2       40.2470   18.5300   18.1630 C.ar  146  TYR146     -0.0009
     74  CE1       38.0370   18.5240   19.8380 C.ar  146  TYR146      0.0417
     75  CE2       39.3360   19.5800   18.1180 C.ar  146  TYR146      0.0417
     76  CZ        38.2350   19.5670   18.9650 C.ar  146  TYR146      0.1957
     77  OH        37.3030   20.5800   18.9560 O.3   146  TYR146     -0.2866
     78  N         18.3880   17.5390   21.8590 N.3   326  ILE326     -0.1231
     79  CA        19.7010   18.1700   21.7580 C.3   326  ILE326      0.1678
     80  C         19.7890   19.3060   22.7730 C.2   326  ILE326      0.2434
     81  O         18.8350   20.0620   22.9340 O.2   326  ILE326     -0.2733
     82  CB        19.9260   18.7700   20.3590 C.3   326  ILE326      0.0265
     83  CG1       19.7170   17.7160   19.2890 C.3   326  ILE326      0.0019
     84  CG2       21.3440   19.3640   20.2330 C.3   326  ILE326      0.0020
     85  CD1       19.8330   18.2620   17.9190 C.3   326  ILE326      0.0001
     86  N         20.9280   19.4330   23.4740 N.am  327  PRO327     -0.2729
     87  CA        21.1090   20.6180   24.3170 C.3   327  PRO327      0.1401
     88  C         20.9700   21.9040   23.4960 C.2   327  PRO327      0.2269
     89  O         21.2230   21.8960   22.2900 O.2   327  PRO327     -0.2865
     90  CB        22.5390   20.4570   24.8470 C.3   327  PRO327      0.0296
     91  CG        22.7830   18.9820   24.7990 C.3   327  PRO327      0.0237
     92  CD        22.0740   18.5090   23.5670 C.3   327  PRO327      0.0939
     93  N         21.8850   26.0940   22.9070 N.3   329  LYS329     -0.1245
     94  CA        22.8720   27.1530   23.1320 C.3   329  LYS329      0.1561
     95  C         22.2840   28.3040   23.9470 C.2   329  LYS329      0.2260
     96  O         23.0270   29.1190   24.4980 O.2   329  LYS329     -0.2867
     97  CB        23.4140   27.6750   21.7970 C.3   329  LYS329      0.0271
     98  CG        24.3260   26.7020   21.0580 C.3   329  LYS329      0.0035
     99  CD        25.7200   26.6510   21.6730 C.3   329  LYS329      0.0206
    100  CE        25.9990   25.3190   22.3600 C.3   329  LYS329      0.1093
    101  NZ        26.0990   24.1670   21.4120 N.3   329  LYS329     -0.1314
    102  N         23.3780   10.9720   23.5660 N.3   359  ALA359     -0.1231
    103  CA        23.9790   11.1500   22.2460 C.3   359  ALA359      0.1694
    104  C         24.6340   12.5170   22.0650 C.2   359  ALA359      0.2592
    105  O         24.8910   12.9320   20.9440 O.2   359  ALA359     -0.2718
    106  CB        22.9470   10.8660   21.1270 C.3   359  ALA359      0.0304
    107  N         24.9360   13.1850   23.1660 N.am  360  HIS360     -0.1962
    108  CA        25.6050   14.4870   23.1740 C.3   360  HIS360      0.1772
    109  C         26.2920   14.6610   24.5210 C.2   360  HIS360      0.2462
    110  O         25.6850   14.4160   25.5630 O.2   360  HIS360     -0.2730
    111  CB        24.5680   15.5900   22.9620 C.3   360  HIS360      0.0785
    112  CG        25.1450   16.9230   22.5980 C.ar  360  HIS360      0.0821
    113  ND1       25.8690   17.6920   23.4850 N.ar  360  HIS360     -0.2267
    114  CD2       25.0740   17.6380   21.4490 C.ar  360  HIS360      0.1154
    115  CE1       26.2290   18.8180   22.8930 C.ar  360  HIS360      0.1986
    116  NE2       25.7580   18.8110   21.6590 N.ar  360  HIS360     -0.2212
    117  N         27.5660   15.0900   24.5210 N.am  361  PRO361     -0.2727
    118  CA        28.2550   15.2590   25.8040 C.3   361  PRO361      0.1402
    119  C         27.6090   16.2640   26.7650 C.2   361  PRO361      0.2269
    120  O         27.8250   16.1760   27.9690 O.2   361  PRO361     -0.2865
    121  CB        29.6570   15.7390   25.4020 C.3   361  PRO361      0.0296
    122  CG        29.7750   15.5080   23.9480 C.3   361  PRO361      0.0237
    123  CD        28.4190   15.4270   23.3680 C.3   361  PRO361      0.0939
    124  N         20.6170   17.0670   13.4100 N.3   431  PRO431     -0.2116
    125  CA        19.7400   17.8090   14.2830 C.3   431  PRO431      0.1372
    126  C         18.6300   18.4160   13.4560 C.2   431  PRO431      0.2244
    127  O         18.9080   19.0800   12.4480 O.2   431  PRO431     -0.2868
    128  CB        20.6540   18.9040   14.8380 C.3   431  PRO431      0.0268
    129  CG        21.6340   19.1500   13.7570 C.3   431  PRO431      0.0207
    130  CD        21.8380   17.8280   13.0780 C.3   431  PRO431      0.0892
    131  N         17.6170   15.0250   17.8400 N.3   436  MET436     -0.1245
    132  CA        18.5830   14.2170   17.1150 C.3   436  MET436      0.1570
    133  C         17.7900   13.1710   16.3030 C.2   436  MET436      0.2261
    134  O         16.9850   12.4090   16.8540 O.2   436  MET436     -0.2867
    135  CB        19.6100   13.6000   18.1010 C.3   436  MET436      0.0387
    136  CG        20.8430   14.5450   18.3550 C.3   436  MET436      0.0595
    137  SD        21.8580   14.3220   19.8490 S.3   436  MET436     -0.1393
    138  CE        20.6530   13.9790   21.1410 C.3   436  MET436      0.0692
@<TRIPOS>BOND
     1   127   126    2
     2   130   124    1
     3   130   129    1
     4   124   125    1
     5   126   125    1
     6    24    25    1
     7    24    21    1
     8   129   128    1
     9    25    26    1
    10   125   128    1
    11    21    22    1
    12    21    20    1
    13    22    23    2
    14    27    28    1
    15    31    28    1
    16    31    32    1
    17    26    20    1
    18    43    42    1
    19    20    18   am
    20    28    29    1
    21    33    34    1
    22    33    32    1
    23    41    40    1
    24    41    42    1
    25    34    35    1
    26    57    58    1
    27   133   134    2
    28   133   132    1
    29    40    37    1
    30    36    29   am
    31    36    37    1
    32    60    59    2
    33    29    30    2
    34    18    19    2
    35    18    17    1
    36   132   131    1
    37   132   135    1
    38    37    38    1
    39    59    58    1
    40    58    61    1
    41    85    83    1
    42    61    62    1
    43   135   136    1
    44    75    73   ar
    45    75    76   ar
    46    73    71   ar
    47    38    39    2
    48    17    16    1
    49   136   137    1
    50    66    67    1
    51    77    76    1
    52    76    74   ar
    53    71    70    1
    54    71    72   ar
    55    69    68    2
    56    70    67    1
    57    83    82    1
    58    16    11   am
    59    62    63    1
    60    67    68    1
    61    74    72   ar
    62   137   138    1
    63    63    64    1
    64    51    49   am
    65    84    82    1
    66    82    79    1
    67    11    12    2
    68    11    10    1
    69    49    48    1
    70    49    50    2
    71    14    13    1
    72    13    10    1
    73    13    15    1
    74   105   104    2
    75    44    45    1
    76    98    99    1
    77    98    97    1
    78   106   103    1
    79    64    65    1
    80    48    45    1
    81    10     9    1
    82   101   100    1
    83   114   116   ar
    84   114   112   ar
    85   116   115   ar
    86    99   100    1
    87    79    78    1
    88    79    80    1
    89    97    94    1
    90    45    46    1
    91    56    53    1
    92   104   103    1
    93   104   107   am
    94    52    46   am
    95    52    53    1
    96   103   102    1
    97    89    88    2
    98   112   111    1
    99   112   113   ar
   100     9     3   am
   101    80    81    2
   102    80    86   am
   103    46    47    2
   104   115   113   ar
   105    93    94    1
   106    53    54    1
   107   111   108    1
   108    94    95    1
   109   107   108    1
   110   108   109    1
   111   123   122    1
   112   123   117    1
   113     4     3    2
   114    86    92    1
   115    86    87    1
   116    88    87    1
   117    92    91    1
   118     3     2    1
   119     6     8    1
   120     6     5    1
   121    54    55    2
   122    95    96    2
   123   122   121    1
   124    87    90    1
   125   109   117   am
   126   109   110    2
   127   117   118    1
   128    91    90    1
   129     7     5    1
   130     2     5    1
   131     2     1    1
   132   121   118    1
   133   118   119    1
   134   119   120    2
