@<TRIPOS>MOLECULE
tmp/3cv6A01.pdb
 164 163 0 0 0
SMALL
GASTEIGER

@<TRIPOS>ATOM
      1  N        -11.8840    7.1710    5.6560 N.3    24  ALA24      -0.1231
      2  CA       -11.3500    8.1750    6.5700 C.3    24  ALA24       0.1694
      3  C        -11.4860    7.7270    8.0210 C.2    24  ALA24       0.2592
      4  O        -12.5000    7.1480    8.4100 O.2    24  ALA24      -0.2718
      5  CB       -12.0470    9.5100    6.3570 C.3    24  ALA24       0.0304
      6  N        -10.4570    7.9990    8.8180 N.am   25  LEU25      -0.1966
      7  CA       -10.3260    7.3660   10.1780 C.3    25  LEU25       0.1713
      8  C        -10.5850    8.4610   11.1710 C.2    25  LEU25       0.2458
      9  O        -10.6080    9.6390   10.8140 O.2    25  LEU25      -0.2730
     10  CB        -8.9230    6.7830   10.3620 C.3    25  LEU25       0.0310
     11  CG        -8.6240    5.4870    9.6060 C.3    25  LEU25       0.0022
     12  CD1       -7.1260    5.2280    9.5550 C.3    25  LEU25       0.0001
     13  CD2       -9.3550    4.3130   10.2390 C.3    25  LEU25       0.0001
     14  N        -10.6660    8.0880   12.4440 N.am   26  PRO26      -0.2716
     15  CA       -10.3700    9.0170   13.5390 C.3    26  PRO26       0.1536
     16  C         -8.8820    9.3410   13.6200 C.2    26  PRO26       0.2598
     17  O         -8.0490    8.5000   13.2820 O.2    26  PRO26      -0.2715
     18  CB       -10.8070    8.2370   14.7810 C.3    26  PRO26       0.0310
     19  CG       -11.8740    7.3260   14.2890 C.3    26  PRO26       0.0237
     20  CD       -11.4750    6.9410   12.8930 C.3    26  PRO26       0.0939
     21  N         -8.5590   10.5510   14.0650 N.am   27  LEU27      -0.1978
     22  CA        -7.2340   11.1190   13.8450 C.3    27  LEU27       0.1596
     23  C         -6.1920   10.4490   14.7330 C.2    27  LEU27       0.2287
     24  O         -4.9970   10.4800   14.4380 O.2    27  LEU27      -0.2864
     25  CB        -7.2490   12.6280   14.0980 C.3    27  LEU27       0.0297
     26  CG        -7.8880   13.4920   13.0090 C.3    27  LEU27       0.0022
     27  CD1       -7.9850   14.9410   13.4610 C.3    27  LEU27       0.0001
     28  CD2       -7.1070   13.3830   11.7090 C.3    27  LEU27       0.0001
     29  N         -2.9990    4.9850   10.1470 N.3    31  LYS31      -0.1245
     30  CA        -3.5550    4.8120    8.8100 C.3    31  LYS31       0.1561
     31  C         -3.7140    3.3350    8.4670 C.2    31  LYS31       0.2260
     32  O         -4.5380    2.9680    7.6290 O.2    31  LYS31      -0.2867
     33  CB        -2.6710    5.5020    7.7690 C.3    31  LYS31       0.0271
     34  CG        -2.4790    6.9910    8.0070 C.3    31  LYS31       0.0035
     35  CD        -3.8110    7.6940    8.2080 C.3    31  LYS31       0.0206
     36  CE        -3.6140    9.1490    8.6030 C.3    31  LYS31       0.1093
     37  NZ        -4.9100    9.8670    8.7440 N.3    31  LYS31      -0.1314
     38  N         -6.3580   12.3530    0.3810 N.3    54  VAL54      -0.1231
     39  CA        -6.0180   13.1720    1.5380 C.3    54  VAL54       0.1692
     40  C         -6.2180   12.4000    2.8380 C.2    54  VAL54       0.2592
     41  O         -5.7130   12.7940    3.8890 O.2    54  VAL54      -0.2718
     42  CB        -6.8570   14.4620    1.5840 C.3    54  VAL54       0.0266
     43  CG1       -8.2570   14.1690    2.1000 C.3    54  VAL54       0.0020
     44  CG2       -6.1730   15.5130    2.4450 C.3    54  VAL54       0.0020
     45  N         -6.9590   11.2990    2.7590 N.am   55  TYR55      -0.1976
     46  CA        -7.1210   10.4020    3.8960 C.3    55  TYR55       0.1639
     47  C         -5.8130    9.6950    4.2320 C.2    55  TYR55       0.2290
     48  O         -5.5370    9.3990    5.3950 O.2    55  TYR55      -0.2864
     49  CB        -8.2180    9.3730    3.6140 C.3    55  TYR55       0.0560
     50  CG        -9.5700    9.9830    3.3210 C.ar   55  TYR55      -0.0198
     51  CD1       -9.8070   11.3330    3.5440 C.ar   55  TYR55      -0.0009
     52  CD2      -10.6100    9.2100    2.8220 C.ar   55  TYR55      -0.0009
     53  CE1      -11.0410   11.8960    3.2780 C.ar   55  TYR55       0.0417
     54  CE2      -11.8470    9.7630    2.5530 C.ar   55  TYR55       0.0417
     55  CZ       -12.0570   11.1060    2.7830 C.ar   55  TYR55       0.1957
     56  OH       -13.2870   11.6630    2.5170 O.3    55  TYR55      -0.2866
     57  N         -5.0680    6.7320    3.3760 N.3    57  THR57      -0.1218
     58  CA        -5.4170    5.3580    3.6940 C.3    57  THR57       0.1862
     59  C         -5.5160    4.5210    2.4270 C.2    57  THR57       0.2287
     60  O         -5.8370    3.3460    2.5190 O.2    57  THR57      -0.2866
     61  CB        -6.7760    5.2640    4.4630 C.3    57  THR57       0.1770
     62  OG1       -7.8110    5.9510    3.7370 O.3    57  THR57      -0.2211
     63  CG2       -6.6540    5.8070    5.8550 C.3    57  THR57       0.0375
     64  N         -7.3410   16.2470   -4.2710 N.3    86  TRP86      -0.1241
     65  CA        -7.3760   17.2510   -3.2300 C.3    86  TRP86       0.1605
     66  C         -7.1420   18.6910   -3.7440 C.2    86  TRP86       0.2264
     67  O         -6.6160   18.8890   -4.8290 O.2    86  TRP86      -0.2867
     68  CB        -6.4070   16.8590   -2.1140 C.3    86  TRP86       0.0550
     69  CG        -6.3380   17.8050   -0.9800 C.ar   86  TRP86       0.0003
     70  CD1       -5.2550   18.5440   -0.6110 C.ar   86  TRP86       0.0946
     71  CD2       -7.3810   18.1120   -0.0330 C.ar   86  TRP86       0.0152
     72  NE1       -5.5550   19.2910    0.5030 N.ar   86  TRP86      -0.2442
     73  CE2       -6.8530   19.0650    0.8670 C.ar   86  TRP86       0.0810
     74  CE3       -8.7090   17.6800    0.1340 C.ar   86  TRP86       0.0012
     75  CZ2       -7.5980   19.5970    1.9230 C.ar   86  TRP86       0.0191
     76  CZ3       -9.4510   18.1940    1.1870 C.ar   86  TRP86       0.0001
     77  CH2       -8.8990   19.1530    2.0660 C.ar   86  TRP86       0.0015
     78  N        -12.6060   17.0490   -4.7000 N.3   117  HIS117     -0.1226
     79  CA       -12.9370   16.9500   -3.2510 C.3   117  HIS117      0.1752
     80  C        -13.6280   18.2030   -2.6640 C.2   117  HIS117      0.2596
     81  O        -14.5550   18.1170   -1.8470 O.2   117  HIS117     -0.2718
     82  CB       -11.6710   16.6000   -2.4370 C.3   117  HIS117      0.0759
     83  CG       -11.9510   16.0070   -1.0830 C.ar  117  HIS117      0.0818
     84  ND1      -11.1110   15.0880   -0.4820 N.ar  117  HIS117     -0.2268
     85  CD2      -12.9680   16.2050   -0.2120 C.ar  117  HIS117      0.1154
     86  CE1      -11.6030   14.7480    0.6970 C.ar  117  HIS117      0.1986
     87  NE2      -12.7250   15.4140    0.8850 N.ar  117  HIS117     -0.2212
     88  N        -13.1470   19.3660   -3.0860 N.am  118  TYR118     -0.1976
     89  CA       -13.7840   20.6470   -2.7930 C.3   118  TYR118      0.1639
     90  C        -13.6190   21.5630   -4.0180 C.2   118  TYR118      0.2290
     91  O        -12.6310   21.4390   -4.7620 O.2   118  TYR118     -0.2864
     92  CB       -13.1190   21.3300   -1.5900 C.3   118  TYR118      0.0560
     93  CG       -13.5590   20.8910   -0.2170 C.ar  118  TYR118     -0.0198
     94  CD1      -14.7860   21.3030    0.3050 C.ar  118  TYR118     -0.0009
     95  CD2      -12.7330   20.0860    0.5820 C.ar  118  TYR118     -0.0009
     96  CE1      -15.1850   20.9380    1.5760 C.ar  118  TYR118      0.0417
     97  CE2      -13.1300   19.6850    1.8580 C.ar  118  TYR118      0.0417
     98  CZ       -14.3550   20.1150    2.3510 C.ar  118  TYR118      0.1957
     99  OH       -14.7670   19.7500    3.6370 O.3   118  TYR118     -0.2866
    100  N         -2.3580   21.0540    3.7030 N.3   129  PHE129     -0.1241
    101  CA        -3.0410   22.1210    4.4240 C.3   129  PHE129      0.1605
    102  C         -2.1330   23.3340    4.6040 C.2   129  PHE129      0.2264
    103  O         -2.1540   23.9880    5.6470 O.2   129  PHE129     -0.2867
    104  CB        -3.5270   21.6220    5.7860 C.3   129  PHE129      0.0534
    105  CG        -4.5870   20.5620    5.6990 C.ar  129  PHE129     -0.0203
    106  CD1       -5.9140   20.9050    5.5030 C.ar  129  PHE129     -0.0042
    107  CD2       -4.2570   19.2220    5.8150 C.ar  129  PHE129     -0.0042
    108  CE1       -6.8930   19.9320    5.4230 C.ar  129  PHE129     -0.0003
    109  CE2       -5.2310   18.2440    5.7360 C.ar  129  PHE129     -0.0003
    110  CZ        -6.5500   18.6000    5.5390 C.ar  129  PHE129     -0.0000
    111  N        -18.9590   18.3510   -2.2940 N.3   167  ASN167     -0.1240
    112  CA       -19.1320   19.6190   -1.5930 C.3   167  ASN167      0.1653
    113  C        -19.2990   20.8550   -2.5540 C.2   167  ASN167      0.2266
    114  O        -18.7500   21.9310   -2.2550 O.2   167  ASN167     -0.2867
    115  CB       -17.9580   19.8770   -0.5910 C.3   167  ASN167      0.1155
    116  CG       -17.8190   18.7930    0.5150 C.2   167  ASN167      0.2627
    117  OD1      -18.6870   18.6540    1.3620 O.2   167  ASN167     -0.2716
    118  ND2      -16.6850   18.0970    0.5440 N.am  167  ASN167     -0.0877
    119  N        -22.3870   11.8650    3.1480 N.3   216  TYR216     -0.1241
    120  CA       -21.5750   11.6210    4.3210 C.3   216  TYR216      0.1605
    121  C        -22.1960   12.2990    5.5500 C.2   216  TYR216      0.2264
    122  O        -23.1660   13.0360    5.4280 O.2   216  TYR216     -0.2867
    123  CB       -20.1220   11.9880    4.0990 C.3   216  TYR216      0.0534
    124  CG       -19.8170   13.4770    3.9580 C.ar  216  TYR216     -0.0201
    125  CD1      -19.5850   14.0330    2.7020 C.ar  216  TYR216     -0.0009
    126  CD2      -19.6750   14.2920    5.0920 C.ar  216  TYR216     -0.0009
    127  CE1      -19.2760   15.4120    2.5570 C.ar  216  TYR216      0.0417
    128  CE2      -19.3690   15.6500    4.9680 C.ar  216  TYR216      0.0417
    129  CZ       -19.1750   16.1940    3.6990 C.ar  216  TYR216      0.1957
    130  OH       -18.8540   17.5130    3.5700 O.3   216  TYR216     -0.2866
    131  N        -14.5720   14.6840   14.1210 N.3   224  TYR224     -0.1241
    132  CA       -13.1460   14.9180   14.1150 C.3   224  TYR224      0.1605
    133  C        -12.8860   16.2880   14.7260 C.2   224  TYR224      0.2264
    134  O        -13.4010   17.2520   14.2580 O.2   224  TYR224     -0.2867
    135  CB       -12.6030   14.9110   12.6850 C.3   224  TYR224      0.0534
    136  CG       -13.1850   13.9020   11.6990 C.ar  224  TYR224     -0.0201
    137  CD1      -14.3250   14.1770   10.9880 C.ar  224  TYR224     -0.0009
    138  CD2      -12.5660   12.6880   11.4720 C.ar  224  TYR224     -0.0009
    139  CE1      -14.8280   13.2830   10.1050 C.ar  224  TYR224      0.0417
    140  CE2      -13.0640   11.7960   10.6010 C.ar  224  TYR224      0.0417
    141  CZ       -14.2000   12.0800    9.9140 C.ar  224  TYR224      0.1957
    142  OH       -14.6910   11.1830    9.0310 O.3   224  TYR224     -0.2866
    143  N        -12.5400   19.5270   13.1030 N.3   227  TRP227     -0.1241
    144  CA       -13.4710   19.8960   12.0810 C.3   227  TRP227      0.1605
    145  C        -14.8750   19.9720   12.6560 C.2   227  TRP227      0.2264
    146  O        -15.7320   20.5810   12.0620 O.2   227  TRP227     -0.2867
    147  CB       -13.4470   18.8660   10.9670 C.3   227  TRP227      0.0550
    148  CG       -12.2140   18.8250   10.1490 C.ar  227  TRP227      0.0003
    149  CD1      -11.0600   18.1960   10.4510 C.ar  227  TRP227      0.0946
    150  CD2      -12.0330   19.3920    8.8600 C.ar  227  TRP227      0.0152
    151  NE1      -10.1560   18.3530    9.4380 N.ar  227  TRP227     -0.2442
    152  CE2      -10.7390   19.0930    8.4490 C.ar  227  TRP227      0.0810
    153  CE3      -12.8480   20.1150    7.9970 C.ar  227  TRP227      0.0012
    154  CZ2      -10.2390   19.5070    7.2270 C.ar  227  TRP227      0.0191
    155  CZ3      -12.3550   20.5160    6.8060 C.ar  227  TRP227      0.0001
    156  CH2      -11.0650   20.2270    6.4270 C.ar  227  TRP227      0.0015
    157  N        -19.8400   19.6330    9.3980 N.3   306  ILE306     -0.1245
    158  CA       -18.5790   19.8820    8.6890 C.3   306  ILE306      0.1561
    159  C        -18.6680   21.1080    7.7250 C.2   306  ILE306      0.2260
    160  O        -18.7050   20.9580    6.4900 O.2   306  ILE306     -0.2867
    161  CB       -17.9830   18.5900    8.0030 C.3   306  ILE306      0.0252
    162  CG1      -17.9630   17.3750    8.9760 C.3   306  ILE306      0.0019
    163  CG2      -16.5750   18.8690    7.4550 C.3   306  ILE306      0.0019
    164  CD1      -17.3530   16.0180    8.3630 C.3   306  ILE306      0.0001
@<TRIPOS>BOND
     1    67    66    2
     2    91    90    2
     3    78    79    1
     4    64    65    1
     5    90    89    1
     6    66    65    1
     7    79    80    1
     8    79    82    1
     9    65    68    1
    10    88    89    1
    11    88    80   am
    12    89    92    1
    13    80    81    2
    14   113   114    2
    15   113   112    1
    16    82    83    1
    17   111   112    1
    18    68    69    1
    19   112   115    1
    20    92    93    1
    21    83    84   ar
    22    83    85   ar
    23    69    70   ar
    24    69    71   ar
    25    70    72   ar
    26   115   116    1
    27    84    86   ar
    28    93    94   ar
    29    93    95   ar
    30    85    87   ar
    31    71    74   ar
    32    71    73   ar
    33    74    76   ar
    34    94    96   ar
    35    38    39    1
    36    72    73   ar
    37   116   118   am
    38   116   117    2
    39    95    97   ar
    40    86    87   ar
    41    73    75   ar
    42    76    77   ar
    43    39    42    1
    44    39    40    1
    45    96    98   ar
    46    42    43    1
    47    42    44    1
    48    97    98   ar
    49    75    77   ar
    50    98    99    1
    51    59    60    2
    52    59    58    1
    53    56    55    1
    54    54    55   ar
    55    54    52   ar
    56   127   125   ar
    57   127   129   ar
    58   125   124   ar
    59    45    40   am
    60    45    46    1
    61    55    53   ar
    62    52    50   ar
    63    40    41    2
    64   119   120    1
    65    53    51   ar
    66    50    51   ar
    67    50    49    1
    68    57    58    1
    69   130   129    1
    70    49    46    1
    71    58    61    1
    72   129   128   ar
    73   100   101    1
    74    62    61    1
    75    46    47    1
    76   124   123    1
    77   124   126   ar
    78   123   120    1
    79    47    48    2
    80   120   121    1
    81   101   102    1
    82   101   104    1
    83    61    63    1
    84   102   103    2
    85   128   126   ar
    86   108   106   ar
    87   108   110   ar
    88   122   121    2
    89   106   105   ar
    90   110   109   ar
    91     1     2    1
    92   105   104    1
    93   105   107   ar
    94   109   107   ar
    95     5     2    1
    96   156   155   ar
    97   156   154   ar
    98   160   159    2
    99     2     3    1
   100   155   153   ar
   101   154   152   ar
   102   163   161    1
   103    32    31    2
   104   159   158    1
   105    33    34    1
   106    33    30    1
   107   153   150   ar
   108   161   158    1
   109   161   162    1
   110    34    35    1
   111     3     4    2
   112     3     6   am
   113    35    36    1
   114   164   162    1
   115   152   150   ar
   116   152   151   ar
   117    31    30    1
   118    36    37    1
   119   158   157    1
   120    30    29    1
   121     6     7    1
   122   150   148   ar
   123   142   141    1
   124   151   149   ar
   125    12    11    1
   126    11    13    1
   127    11    10    1
   128   141   139   ar
   129   141   140   ar
   130   139   137   ar
   131   148   149   ar
   132   148   147    1
   133     7    10    1
   134     7     8    1
   135   140   138   ar
   136     9     8    2
   137   147   144    1
   138   137   136   ar
   139     8    14   am
   140   138   136   ar
   141   136   135    1
   142    28    26    1
   143   146   145    2
   144   144   145    1
   145   144   143    1
   146    14    20    1
   147    14    15    1
   148   135   132    1
   149    20    19    1
   150    26    27    1
   151    26    25    1
   152    17    16    2
   153    15    16    1
   154    15    18    1
   155    16    21   am
   156    22    21    1
   157    22    25    1
   158    22    23    1
   159   132   131    1
   160   132   133    1
   161   134   133    2
   162    19    18    1
   163    24    23    2
