@<TRIPOS>MOLECULE
tmp/3cv7A01.pdb
 129 130 0 0 0
SMALL
GASTEIGER

@<TRIPOS>ATOM
      1  N          6.7210   25.5950   11.4740 N.3    22  TRP22      -0.1241
      2  CA         6.3160   26.8160   10.7650 C.3    22  TRP22       0.1605
      3  C          6.5300   28.1740   11.4750 C.2    22  TRP22       0.2264
      4  O          5.9510   28.4680   12.4780 O.2    22  TRP22      -0.2867
      5  CB         4.9560   26.6860   10.0970 C.3    22  TRP22       0.0550
      6  CG         4.6300   27.7390    9.1210 C.ar   22  TRP22       0.0003
      7  CD1        5.4480   28.2360    8.2260 C.ar   22  TRP22       0.0946
      8  CD2        3.3870   28.4170    8.9440 C.ar   22  TRP22       0.0152
      9  NE1        4.8370   29.1950    7.4960 N.ar   22  TRP22      -0.2442
     10  CE2        3.5590   29.3180    7.9130 C.ar   22  TRP22       0.0810
     11  CE3        2.1460   28.3590    9.5620 C.ar   22  TRP22       0.0012
     12  CZ2        2.5550   30.1610    7.4940 C.ar   22  TRP22       0.0191
     13  CZ3        1.1820   29.1570    9.1550 C.ar   22  TRP22       0.0001
     14  CH2        1.3730   30.0610    8.1410 C.ar   22  TRP22       0.0015
     15  N          9.1850   24.0260    2.5760 N.3    49  ILE49      -0.1231
     16  CA         8.7370   25.3890    2.2990 C.3    49  ILE49       0.1692
     17  C          8.8740   26.3160    3.5160 C.2    49  ILE49       0.2592
     18  O          8.9050   27.5500    3.3620 O.2    49  ILE49      -0.2718
     19  CB         7.2590   25.3780    1.7860 C.3    49  ILE49       0.0266
     20  CG1        6.8070   26.7470    1.2030 C.3    49  ILE49       0.0019
     21  CG2        6.3050   24.9320    2.8870 C.3    49  ILE49       0.0020
     22  CD1        7.6740   27.2540    0.0080 C.3    49  ILE49       0.0001
     23  N          8.9510   25.7330    4.7140 N.am   50  TYR50      -0.1976
     24  CA         9.1370   26.5070    5.9500 C.3    50  TYR50       0.1639
     25  C         10.5370   27.1270    6.0080 C.2    50  TYR50       0.2290
     26  O         10.7630   28.0570    6.7920 O.2    50  TYR50      -0.2864
     27  CB         8.8700   25.6560    7.2140 C.3    50  TYR50       0.0560
     28  CG         7.5000   24.9790    7.3000 C.ar   50  TYR50      -0.0198
     29  CD1        6.4210   25.3790    6.4780 C.ar   50  TYR50      -0.0009
     30  CD2        7.2710   23.9470    8.2300 C.ar   50  TYR50      -0.0009
     31  CE1        5.1730   24.7550    6.5580 C.ar   50  TYR50       0.0417
     32  CE2        6.0120   23.3090    8.3210 C.ar   50  TYR50       0.0417
     33  CZ         4.9840   23.7270    7.4820 C.ar   50  TYR50       0.1957
     34  OH         3.7670   23.1150    7.5720 O.3    50  TYR50      -0.2866
     35  N          6.6020   20.1500   -1.5510 N.3    82  TRP82      -0.1241
     36  CA         6.0780   21.4560   -1.9700 C.3    82  TRP82       0.1605
     37  C          5.4490   21.4150   -3.3680 C.2    82  TRP82       0.2264
     38  O          5.7410   20.5080   -4.1630 O.2    82  TRP82      -0.2867
     39  CB         7.1220   22.6050   -1.8060 C.3    82  TRP82       0.0550
     40  CG         6.4910   23.9240   -2.0730 C.ar   82  TRP82       0.0003
     41  CD1        6.7910   24.7940   -3.0830 C.ar   82  TRP82       0.0946
     42  CD2        5.3590   24.4730   -1.3920 C.ar   82  TRP82       0.0152
     43  NE1        5.9140   25.8700   -3.0650 N.ar   82  TRP82      -0.2442
     44  CE2        5.0330   25.6960   -2.0300 C.ar   82  TRP82       0.0810
     45  CE3        4.5880   24.0550   -0.2970 C.ar   82  TRP82       0.0012
     46  CZ2        3.9790   26.5110   -1.5930 C.ar   82  TRP82       0.0191
     47  CZ3        3.5380   24.8690    0.1320 C.ar   82  TRP82       0.0001
     48  CH2        3.2370   26.0680   -0.5260 C.ar   82  TRP82       0.0015
     49  N          1.7790   18.3710    0.2750 N.3   113  HIS113     -0.1226
     50  CA         1.4010   19.6080    0.9860 C.3   113  HIS113      0.1752
     51  C          0.0670   20.1700    0.5090 C.2   113  HIS113      0.2596
     52  O         -0.7520   20.6010    1.3240 O.2   113  HIS113     -0.2718
     53  CB         2.5020   20.6920    0.8570 C.3   113  HIS113      0.0759
     54  CG         2.6070   21.5870    2.0540 C.ar  113  HIS113      0.0818
     55  ND1        3.8180   21.9630    2.6000 N.ar  113  HIS113     -0.2268
     56  CD2        1.6500   22.1440    2.8390 C.ar  113  HIS113      0.1154
     57  CE1        3.6040   22.7230    3.6630 C.ar  113  HIS113      0.1986
     58  NE2        2.2960   22.8640    3.8190 N.ar  113  HIS113     -0.2212
     59  N         -0.1220   20.1800   -0.8140 N.am  114  TRP114     -0.1976
     60  CA        -1.3900   20.6090   -1.4510 C.3   114  TRP114      0.1640
     61  C         -1.7560   19.6770   -2.6180 C.2   114  TRP114      0.2290
     62  O         -0.8710   19.0380   -3.1910 O.2   114  TRP114     -0.2864
     63  CB        -1.3260   22.0790   -1.9180 C.3   114  TRP114      0.0576
     64  CG        -1.2590   23.0900   -0.7710 C.ar  114  TRP114      0.0006
     65  CD1       -0.1280   23.5990   -0.1920 C.ar  114  TRP114      0.0946
     66  CD2       -2.3650   23.7320   -0.1110 C.ar  114  TRP114      0.0152
     67  NE1       -0.4610   24.4890    0.7990 N.ar  114  TRP114     -0.2442
     68  CE2       -1.8280   24.5930    0.8630 C.ar  114  TRP114      0.0810
     69  CE3       -3.7580   23.6720   -0.2630 C.ar  114  TRP114      0.0012
     70  CZ2       -2.6390   25.3730    1.7110 C.ar  114  TRP114      0.0191
     71  CZ3       -4.5650   24.4310    0.5840 C.ar  114  TRP114      0.0001
     72  CH2       -3.9990   25.2760    1.5540 C.ar  114  TRP114      0.0015
     73  N          7.4760   30.1250   -5.2640 N.3   125  PHE125     -0.1241
     74  CA         6.2890   30.8210   -5.6770 C.3   125  PHE125      0.1605
     75  C          6.3180   31.4460   -7.0680 C.2   125  PHE125      0.2264
     76  O          6.4050   32.6680   -7.2040 O.2   125  PHE125     -0.2867
     77  CB         5.8450   31.8310   -4.6370 C.3   125  PHE125      0.0534
     78  CG         5.8340   31.3070   -3.2450 C.ar  125  PHE125     -0.0203
     79  CD1        4.7050   30.8060   -2.6810 C.ar  125  PHE125     -0.0042
     80  CD2        6.9610   31.3010   -2.5070 C.ar  125  PHE125     -0.0042
     81  CE1        4.7380   30.3790   -1.4710 C.ar  125  PHE125     -0.0003
     82  CE2        6.9540   30.8070   -1.3060 C.ar  125  PHE125     -0.0003
     83  CZ         5.8350   30.3730   -0.7880 C.ar  125  PHE125     -0.0000
     84  N         -4.1670   19.1120    3.2810 N.3   163  ASN163     -0.1240
     85  CA        -5.1470   20.0130    2.6140 C.3   163  ASN163      0.1653
     86  C         -5.8800   19.3930    1.4080 C.2   163  ASN163      0.2266
     87  O         -6.0300   20.0120    0.3500 O.2   163  ASN163     -0.2867
     88  CB        -4.5140   21.3700    2.2340 C.3   163  ASN163      0.1155
     89  CG        -3.8480   22.0680    3.4120 C.2   163  ASN163      0.2627
     90  OD1       -4.5080   22.4960    4.3550 O.2   163  ASN163     -0.2716
     91  ND2       -2.5350   22.1940    3.3520 N.am  163  ASN163     -0.0877
     92  N         -3.4150   20.6080   12.3600 N.3   210  TYR210     -0.1241
     93  CA        -2.5530   21.7660   12.3010 C.3   210  TYR210      0.1605
     94  C         -3.2910   23.0410   12.7210 C.2   210  TYR210      0.2264
     95  O         -4.5310   23.0930   12.6790 O.2   210  TYR210     -0.2867
     96  CB        -1.8370   21.8600   10.9420 C.3   210  TYR210      0.0534
     97  CG        -2.5140   22.4940    9.7340 C.ar  210  TYR210     -0.0201
     98  CD1       -2.9620   23.8300    9.7430 C.ar  210  TYR210     -0.0009
     99  CD2       -2.5980   21.7900    8.5350 C.ar  210  TYR210     -0.0009
    100  CE1       -3.5100   24.4160    8.5940 C.ar  210  TYR210      0.0417
    101  CE2       -3.1520   22.3580    7.3890 C.ar  210  TYR210      0.0417
    102  CZ        -3.5980   23.6670    7.4200 C.ar  210  TYR210      0.1957
    103  OH        -4.1330   24.2190    6.2680 O.3   210  TYR210     -0.2866
    104  N         -6.3460   29.5980    8.1380 N.3   299  ILE299     -0.1245
    105  CA        -5.2110   29.4280    7.2350 C.3   299  ILE299      0.1561
    106  C         -5.6870   29.2680    5.7840 C.2   299  ILE299      0.2260
    107  O         -6.0880   28.1780    5.3440 O.2   299  ILE299     -0.2867
    108  CB        -4.2920   28.2390    7.6900 C.3   299  ILE299      0.0252
    109  CG1       -3.9230   28.3720    9.1710 C.3   299  ILE299      0.0019
    110  CG2       -3.0350   28.0810    6.7960 C.3   299  ILE299      0.0019
    111  CD1       -3.1860   29.6610    9.5720 C.3   299  ILE299      0.0001
    112  N         -4.2440   30.4740    1.9160 N.3   301  PRO301     -0.2116
    113  CA        -3.1000   31.0960    1.2320 C.3   301  PRO301      0.1372
    114  C         -3.4710   32.4330    0.5790 C.2   301  PRO301      0.2244
    115  O         -4.4060   32.4900   -0.2330 O.2   301  PRO301     -0.2868
    116  CB        -2.7310   30.0720    0.1430 C.3   301  PRO301      0.0268
    117  CG        -3.4110   28.8020    0.5090 C.3   301  PRO301      0.0207
    118  CD        -4.6210   29.1790    1.3110 C.3   301  PRO301      0.0892
    119  N         -4.9160   33.6190   -2.7480 N.3   309  ARG309     -0.1245
    120  CA        -4.0510   33.1370   -3.8010 C.3   309  ARG309      0.1563
    121  C         -4.6850   32.0690   -4.7180 C.2   309  ARG309      0.2260
    122  O         -4.6710   32.2270   -5.9300 O.2   309  ARG309     -0.2867
    123  CB        -2.7470   32.6240   -3.1900 C.3   309  ARG309      0.0307
    124  CG        -1.6520   32.4050   -4.1890 C.3   309  ARG309      0.0489
    125  CD        -0.4070   31.9640   -3.4910 C.3   309  ARG309      0.2205
    126  NE        -0.5780   30.6510   -2.8810 N.pl3 309  ARG309     -0.0865
    127  CZ         0.2110   30.1580   -1.9290 C.cat 309  ARG309      0.5346
    128  NH1        1.2260   30.8740   -1.4590 N.pl3 309  ARG309      0.1354
    129  NH2       -0.0240   28.9510   -1.4400 N.pl3 309  ARG309      0.1354
@<TRIPOS>BOND
     1    76    75    2
     2    75    74    1
     3   122   121    2
     4    74    73    1
     5    74    77    1
     6   121   120    1
     7    77    78    1
     8   124   125    1
     9   124   123    1
    10    38    37    2
    11   120   123    1
    12   120   119    1
    13   125   126    1
    14    37    36    1
    15    78    79   ar
    16    78    80   ar
    17    62    61    2
    18    41    43   ar
    19    41    40   ar
    20    43    44   ar
    21   126   127    2
    22    79    81   ar
    23    61    60    1
    24    80    82   ar
    25    40    39    1
    26    40    42   ar
    27    44    46   ar
    28    44    42   ar
    29    36    39    1
    30    36    35    1
    31   127   128    1
    32   127   129    1
    33    63    60    1
    34    63    64    1
    35    46    48   ar
    36    81    83   ar
    37    60    59    1
    38    42    45   ar
    39    82    83   ar
    40    59    51   am
    41    64    65   ar
    42    64    66   ar
    43    48    47   ar
    44    45    47   ar
    45    69    66   ar
    46    69    71   ar
    47   115   114    2
    48    65    67   ar
    49    66    68   ar
    50    22    20    1
    51   116   117    1
    52   116   113    1
    53    49    50    1
    54    87    86    2
    55    51    50    1
    56    51    52    2
    57   117   118    1
    58   114   113    1
    59    71    72   ar
    60    67    68   ar
    61    53    50    1
    62    53    54    1
    63    68    70   ar
    64    20    19    1
    65   113   112    1
    66   118   112    1
    67    86    85    1
    68    72    70   ar
    69    19    16    1
    70    19    21    1
    71    54    55   ar
    72    54    56   ar
    73    88    85    1
    74    88    89    1
    75    16    15    1
    76    16    17    1
    77    55    57   ar
    78    85    84    1
    79    56    58   ar
    80    91    89   am
    81    18    17    2
    82    89    90    2
    83    17    23   am
    84    57    58   ar
    85    23    24    1
    86   107   106    2
    87   106   105    1
    88    24    25    1
    89    24    27    1
    90    25    26    2
    91   103   102    1
    92    29    31   ar
    93    29    28   ar
    94    31    33   ar
    95   110   108    1
    96    27    28    1
    97   105   108    1
    98   105   104    1
    99    28    30   ar
   100   101   102   ar
   101   101    99   ar
   102   102   100   ar
   103    33    34    1
   104    33    32   ar
   105    12    10   ar
   106    12    14   ar
   107     9    10   ar
   108     9     7   ar
   109   108   109    1
   110    10     8   ar
   111    14    13   ar
   112     7     6   ar
   113    30    32   ar
   114    99    97   ar
   115   100    98   ar
   116     8     6   ar
   117     8    11   ar
   118     6     5    1
   119    13    11   ar
   120   109   111    1
   121    97    98   ar
   122    97    96    1
   123     5     2    1
   124     2     1    1
   125     2     3    1
   126    96    93    1
   127     3     4    2
   128    93    92    1
   129    93    94    1
   130    95    94    2
