@<TRIPOS>MOLECULE
tmp/3cvkB00.pdb
 205 192 0 0 0
SMALL
GASTEIGER

@<TRIPOS>ATOM
      1  N         67.0590  -12.7230   42.5870 N.3   153  ARG153     -0.1245
      2  CA        66.0410  -12.0920   41.7450 C.3   153  ARG153      0.1563
      3  C         66.6720  -10.9780   40.9140 C.2   153  ARG153      0.2260
      4  O         67.7310  -10.4570   41.2630 O.2   153  ARG153     -0.2867
      5  CB        64.8960  -11.5200   42.5930 C.3   153  ARG153      0.0307
      6  CG        63.8090  -12.5440   42.9700 C.3   153  ARG153      0.0489
      7  CD        62.8270  -12.0060   44.0320 C.3   153  ARG153      0.2205
      8  NE        62.3040  -10.6800   43.6860 N.pl3 153  ARG153     -0.0865
      9  CZ        61.5980   -9.8880   44.5010 C.cat 153  ARG153      0.5346
     10  NH1       61.3060  -10.2670   45.7440 N.pl3 153  ARG153      0.1354
     11  NH2       61.1870   -8.6940   44.0640 N.pl3 153  ARG153      0.1354
     12  N         45.4130   -4.9470   48.2240 N.3   188  PHE188     -0.1241
     13  CA        46.2630   -3.9030   48.8000 C.3   188  PHE188      0.1605
     14  C         45.5100   -2.7860   49.5010 C.2   188  PHE188      0.2264
     15  O         46.1390   -1.8780   50.0480 O.2   188  PHE188     -0.2867
     16  CB        47.1980   -3.3220   47.7460 C.3   188  PHE188      0.0534
     17  CG        48.2340   -4.2820   47.2690 C.ar  188  PHE188     -0.0203
     18  CD1       49.2020   -4.7770   48.1490 C.ar  188  PHE188     -0.0042
     19  CD2       48.2600   -4.6880   45.9400 C.ar  188  PHE188     -0.0042
     20  CE1       50.1870   -5.6750   47.7060 C.ar  188  PHE188     -0.0003
     21  CE2       49.2300   -5.5850   45.4810 C.ar  188  PHE188     -0.0003
     22  CZ        50.2040   -6.0790   46.3670 C.ar  188  PHE188     -0.0000
     23  N         45.9960   -5.7580   57.7140 N.3   192  PRO192     -0.2116
     24  CA        45.9260   -7.1880   58.0490 C.3   192  PRO192      0.1372
     25  C         44.5630   -7.5960   58.6150 C.2   192  PRO192      0.2244
     26  O         43.9760   -8.5880   58.1620 O.2   192  PRO192     -0.2868
     27  CB        47.0100   -7.3590   59.1130 C.3   192  PRO192      0.0268
     28  CG        47.9540   -6.2000   58.9150 C.3   192  PRO192      0.0207
     29  CD        47.1210   -5.0740   58.3860 C.3   192  PRO192      0.0892
     30  N         41.9030   -7.7440   55.8800 N.3   195  ARG195     -0.1245
     31  CA        42.1310   -8.8970   55.0150 C.3   195  ARG195      0.1563
     32  C         41.6060  -10.2080   55.6020 C.2   195  ARG195      0.2260
     33  O         40.9670  -10.9900   54.8940 O.2   195  ARG195     -0.2867
     34  CB        43.6150   -9.0350   54.6730 C.3   195  ARG195      0.0307
     35  CG        43.8720  -10.0740   53.6110 C.3   195  ARG195      0.0489
     36  CD        45.3360  -10.3060   53.3620 C.3   195  ARG195      0.2205
     37  NE        45.5350  -11.4660   52.4820 N.pl3 195  ARG195     -0.0865
     38  CZ        45.5160  -11.4170   51.1500 C.cat 195  ARG195      0.5346
     39  NH1       45.3040  -10.2660   50.5230 N.pl3 195  ARG195      0.1354
     40  NH2       45.6900  -12.5220   50.4390 N.pl3 195  ARG195      0.1354
     41  N         56.2920  -12.3250   36.4300 N.3   220  ASP220     -0.1239
     42  CA        56.8030  -11.1970   35.6680 C.3   220  ASP220      0.1674
     43  C         57.2120  -11.6020   34.2580 C.2   220  ASP220      0.2266
     44  O         56.9520  -10.8690   33.2970 O.2   220  ASP220     -0.2867
     45  CB        57.9700  -10.5320   36.3970 C.3   220  ASP220      0.1410
     46  CG        57.5110   -9.5430   37.4680 C.2   220  ASP220      0.3668
     47  OD1       56.2880   -9.4290   37.7290 O.co2 220  ASP220     -0.2456
     48  OD2       58.3840   -8.8700   38.0420 O.co2 220  ASP220     -0.2456
     49  N         60.3880   -5.4450   36.7930 N.3   277  SER277     -0.1217
     50  CA        60.0540   -5.4400   38.2120 C.3   277  SER277      0.1889
     51  C         60.2020   -4.0670   38.8650 C.2   277  SER277      0.2288
     52  O         59.5630   -3.7920   39.8740 O.2   277  SER277     -0.2866
     53  CB        60.9240   -6.4480   38.9610 C.3   277  SER277      0.2089
     54  OG        62.2830   -6.0680   38.8740 O.3   277  SER277     -0.2183
     55  N         54.2040   -1.8260   38.0470 N.3   282  THR282     -0.1203
     56  CA        54.4280   -3.2680   38.2410 C.3   282  THR282      0.1994
     57  C         53.3510   -3.9410   39.0990 C.2   282  THR282      0.2618
     58  O         52.7420   -4.9200   38.6770 O.2   282  THR282     -0.2717
     59  CB        55.8390   -3.5430   38.8270 C.3   282  THR282      0.1784
     60  OG1       56.8220   -3.0270   37.9320 O.3   282  THR282     -0.2211
     61  CG2       56.0960   -5.0620   39.0430 C.3   282  THR282      0.0376
     62  N         53.1150   -3.4000   40.2880 N.am  283  SER283     -0.1951
     63  CA        52.1120   -3.9240   41.2060 C.3   283  SER283      0.1924
     64  C         50.6940   -3.9130   40.6170 C.2   283  SER283      0.2314
     65  O         50.0110   -4.9430   40.6150 O.2   283  SER283     -0.2863
     66  CB        52.1620   -3.1530   42.5310 C.3   283  SER283      0.2116
     67  OG        51.2200   -3.6580   43.4550 O.3   283  SER283     -0.2180
     68  N         50.4730   -6.1740   37.3530 N.3   286  ASN286     -0.1240
     69  CA        50.3510   -7.5740   37.7460 C.3   286  ASN286      0.1653
     70  C         48.9740   -7.9230   38.3400 C.2   286  ASN286      0.2266
     71  O         48.4080   -8.9760   38.0390 O.2   286  ASN286     -0.2867
     72  CB        51.4650   -7.9740   38.7140 C.3   286  ASN286      0.1155
     73  CG        52.7860   -8.2090   38.0190 C.2   286  ASN286      0.2627
     74  OD1       52.8470   -8.2870   36.7950 O.2   286  ASN286     -0.2716
     75  ND2       53.8580   -8.3150   38.8010 N.am  286  ASN286     -0.0877
     76  N         46.7490   -9.8480   44.9580 N.3   311  ASN311     -0.1225
     77  CA        47.7990   -8.9100   45.3080 C.3   311  ASN311      0.1785
     78  C         48.9340   -9.0500   44.3130 C.2   311  ASN311      0.2598
     79  O         49.8060   -9.8840   44.4870 O.2   311  ASN311     -0.2718
     80  CB        48.3270   -9.1670   46.7220 C.3   311  ASN311      0.1169
     81  CG        47.2870   -8.9380   47.7840 C.2   311  ASN311      0.2627
     82  OD1       46.2980   -9.6710   47.8800 O.2   311  ASN311     -0.2716
     83  ND2       47.5050   -7.9120   48.6030 N.am  311  ASN311     -0.0877
     84  N         48.9240   -8.2420   43.2630 N.am  312  GLY312     -0.1942
     85  CA        49.9300   -8.3640   42.2080 C.3   312  GLY312      0.2014
     86  C         49.8280   -9.7300   41.5780 C.2   312  GLY312      0.2639
     87  O         48.7850  -10.1010   41.0800 O.2   312  GLY312     -0.2714
     88  N         50.9130  -10.4870   41.6480 N.am  313  ASP313     -0.1957
     89  CA        50.9840  -11.8310   41.0840 C.3   313  ASP313      0.1840
     90  C         50.4710  -12.9030   42.0610 C.2   313  ASP313      0.2622
     91  O         50.4330  -14.0910   41.7300 O.2   313  ASP313     -0.2715
     92  CB        52.4270  -12.1410   40.6910 C.3   313  ASP313      0.1450
     93  CG        53.3930  -12.0690   41.8630 C.2   313  ASP313      0.3671
     94  OD1       53.0590  -11.5030   42.9330 O.co2 313  ASP313     -0.2456
     95  OD2       54.5140  -12.5790   41.7060 O.co2 313  ASP313     -0.2456
     96  N         50.0880  -12.4640   43.2630 N.am  314  ASP314     -0.1971
     97  CA        49.5750  -13.3500   44.2890 C.3   314  ASP314      0.1709
     98  C         48.0560  -13.5120   44.2020 C.2   314  ASP314      0.2293
     99  O         47.3060  -12.5310   44.1390 O.2   314  ASP314     -0.2864
    100  CB        49.9880  -12.8530   45.6710 C.3   314  ASP314      0.1436
    101  CG        50.0030  -13.9560   46.6850 C.2   314  ASP314      0.3671
    102  OD1       48.9210  -14.2780   47.2360 O.co2 314  ASP314     -0.2456
    103  OD2       51.0960  -14.5130   46.9040 O.co2 314  ASP314     -0.2456
    104  N         49.4660  -14.5320   49.9390 N.3   361  CYS361     -0.1235
    105  CA        50.4850  -13.5480   50.3090 C.3   361  CYS361      0.1677
    106  C         51.4270  -14.1430   51.3530 C.2   361  CYS361      0.2270
    107  O         51.7000  -13.5240   52.3830 O.2   361  CYS361     -0.2867
    108  CB        49.8520  -12.2490   50.8170 C.3   361  CYS361      0.0956
    109  SG        49.2150  -11.1960   49.5120 S.3   361  CYS361     -0.0801
    110  N         50.9320  -15.9940   53.5240 N.3   363  SER363     -0.1217
    111  CA        50.2750  -16.0060   54.8260 C.3   363  SER363      0.1889
    112  C         49.0630  -16.9420   54.8740 C.2   363  SER363      0.2288
    113  O         48.3920  -17.1580   53.8610 O.2   363  SER363     -0.2866
    114  CB        49.8440  -14.5840   55.2090 C.3   363  SER363      0.2089
    115  OG        50.8850  -13.6420   55.0200 O.3   363  SER363     -0.2183
    116  N         46.2280  -13.3780   60.6870 N.3   379  LEU379     -0.1245
    117  CA        47.0980  -13.9230   59.6670 C.3   379  LEU379      0.1561
    118  C         48.4870  -14.1590   60.1990 C.2   379  LEU379      0.2260
    119  O         49.0110  -13.3760   61.0100 O.2   379  LEU379     -0.2867
    120  CB        47.1230  -13.0370   58.4300 C.3   379  LEU379      0.0270
    121  CG        45.8200  -13.0700   57.6290 C.3   379  LEU379      0.0019
    122  CD1       45.5150  -11.7230   56.9910 C.3   379  LEU379      0.0001
    123  CD2       45.8520  -14.1880   56.5850 C.3   379  LEU379      0.0001
    124  N         52.4340  -16.6320   59.1600 N.3   381  ARG381     -0.1245
    125  CA        53.2400  -17.3620   58.1730 C.3   381  ARG381      0.1563
    126  C         54.3160  -18.1770   58.8800 C.2   381  ARG381      0.2260
    127  O         54.4770  -18.0640   60.0990 O.2   381  ARG381     -0.2867
    128  CB        53.8850  -16.4000   57.1550 C.3   381  ARG381      0.0307
    129  CG        54.7460  -15.2850   57.7680 C.3   381  ARG381      0.0489
    130  CD        55.6290  -14.6150   56.7320 C.3   381  ARG381      0.2205
    131  NE        56.6360  -15.5230   56.1770 N.pl3 381  ARG381     -0.0865
    132  CZ        57.0940  -15.4740   54.9270 C.cat 381  ARG381      0.5346
    133  NH1       56.6380  -14.5610   54.0730 N.pl3 381  ARG381      0.1354
    134  NH2       58.0050  -16.3440   54.5280 N.pl3 381  ARG381      0.1354
    135  N         58.6020   -4.2220   59.5150 N.3   405  GLY405     -0.1210
    136  CA        57.4480   -4.5580   58.6910 C.3   405  GLY405      0.1956
    137  C         56.7560   -5.8030   59.2150 C.2   405  GLY405      0.2611
    138  O         55.5290   -5.8690   59.2760 O.2   405  GLY405     -0.2717
    139  N         57.5570   -6.7770   59.6280 N.am  406  ASN406     -0.1974
    140  CA        57.0400   -8.0490   60.0920 C.3   406  ASN406      0.1688
    141  C         56.2980   -7.9750   61.4120 C.2   406  ASN406      0.2292
    142  O         55.3170   -8.6820   61.6100 O.2   406  ASN406     -0.2864
    143  CB        58.1530   -9.0850   60.1410 C.3   406  ASN406      0.1181
    144  CG        58.4420   -9.6700   58.7900 C.2   406  ASN406      0.2629
    145  OD1       57.5240   -9.9120   58.0010 O.2   406  ASN406     -0.2716
    146  ND2       59.7160   -9.9000   58.5030 N.am  406  ASN406     -0.0877
    147  N         52.8690   -6.0140   60.4430 N.3   409  MET409     -0.1230
    148  CA        51.8930   -6.7740   59.6930 C.3   409  MET409      0.1702
    149  C         51.5060   -8.0830   60.3820 C.2   409  MET409      0.2592
    150  O         50.4200   -8.6170   60.1360 O.2   409  MET409     -0.2718
    151  CB        52.3780   -7.0070   58.2560 C.3   409  MET409      0.0401
    152  CG        52.5860   -5.7030   57.4570 C.3   409  MET409      0.0596
    153  SD        51.1570   -4.5820   57.3830 S.3   409  MET409     -0.1393
    154  CE        50.1850   -5.3490   56.0940 C.3   409  MET409      0.0692
    155  N         52.3820   -8.5760   61.2570 N.am  410  TYR410     -0.1976
    156  CA        52.1610   -9.8490   61.9330 C.3   410  TYR410      0.1639
    157  C         52.1410   -9.7180   63.4620 C.2   410  TYR410      0.2290
    158  O         52.4190  -10.6830   64.1770 O.2   410  TYR410     -0.2864
    159  CB        53.2160  -10.8650   61.5050 C.3   410  TYR410      0.0560
    160  CG        53.1680  -11.2680   60.0410 C.ar  410  TYR410     -0.0198
    161  CD1       52.1540  -12.0970   59.5580 C.ar  410  TYR410     -0.0009
    162  CD2       54.1570  -10.8470   59.1480 C.ar  410  TYR410     -0.0009
    163  CE1       52.1140  -12.4820   58.2170 C.ar  410  TYR410      0.0417
    164  CE2       54.1310  -11.2290   57.8000 C.ar  410  TYR410      0.0417
    165  CZ        53.1100  -12.0500   57.3430 C.ar  410  TYR410      0.1957
    166  OH        53.0780  -12.4370   56.0160 O.3   410  TYR410     -0.2866
    167  N         59.2330   -1.1250   54.4220 N.3   441  GLN441     -0.1231
    168  CA        58.3000   -1.2600   53.3050 C.3   441  GLN441      0.1698
    169  C         57.0120   -2.0010   53.6700 C.2   441  GLN441      0.2592
    170  O         57.0460   -3.1550   54.1260 O.2   441  GLN441     -0.2718
    171  CB        58.9740   -1.9530   52.1250 C.3   441  GLN441      0.0381
    172  CG        59.7710   -1.0390   51.2240 C.3   441  GLN441      0.0905
    173  CD        60.5360   -1.8020   50.1510 C.2   441  GLN441      0.2608
    174  OE1       61.1170   -1.1990   49.2460 O.2   441  GLN441     -0.2717
    175  NE2       60.5520   -3.1380   50.2540 N.am  441  GLN441     -0.0878
    176  N         55.8910   -1.3150   53.4720 N.am  442  ILE442     -0.1966
    177  CA        54.5640   -1.8990   53.5840 C.3   442  ILE442      0.1727
    178  C         53.8930   -1.7630   52.2270 C.2   442  ILE442      0.2616
    179  O         53.6660   -0.6500   51.7540 O.2   442  ILE442     -0.2715
    180  CB        53.7100   -1.1950   54.6760 C.3   442  ILE442      0.0290
    181  CG1       54.3580   -1.3720   56.0560 C.3   442  ILE442      0.0022
    182  CG2       52.2570   -1.7310   54.6850 C.3   442  ILE442      0.0023
    183  CD1       54.1310   -0.2080   56.9640 C.3   442  ILE442      0.0001
    184  N         53.5930   -2.9090   51.6140 N.am  443  TYR443     -0.1960
    185  CA        53.0330   -2.9950   50.2560 C.3   443  TYR443      0.1771
    186  C         53.8690   -2.2840   49.1880 C.2   443  TYR443      0.2620
    187  O         53.3210   -1.6970   48.2470 O.2   443  TYR443     -0.2715
    188  CB        51.5570   -2.5430   50.2120 C.3   443  TYR443      0.0574
    189  CG        50.5970   -3.4350   50.9860 C.ar  443  TYR443     -0.0198
    190  CD1       50.9060   -4.7830   51.2490 C.ar  443  TYR443     -0.0009
    191  CD2       49.3620   -2.9470   51.4180 C.ar  443  TYR443     -0.0009
    192  CE1       50.0240   -5.6000   51.9530 C.ar  443  TYR443      0.0417
    193  CE2       48.4720   -3.7600   52.1060 C.ar  443  TYR443      0.0417
    194  CZ        48.8140   -5.0850   52.3770 C.ar  443  TYR443      0.1957
    195  OH        47.9320   -5.8870   53.0650 O.3   443  TYR443     -0.2866
    196  N         55.1930   -2.3330   49.3470 N.am  444  GLY444     -0.1954
    197  CA        56.1240   -1.7850   48.3590 C.3   444  GLY444      0.1869
    198  C         56.4960   -0.3280   48.5860 C.2   444  GLY444      0.2309
    199  O         57.5580    0.1280   48.1480 O.2   444  GLY444     -0.2863
    200  N         55.1530   -2.1060   44.7580 N.3   551  SER551     -0.1217
    201  CA        56.3790   -2.9140   44.6700 C.3   551  SER551      0.1889
    202  C         57.2270   -2.5110   43.4600 C.2   551  SER551      0.2288
    203  O         56.7290   -2.4450   42.3240 O.2   551  SER551     -0.2866
    204  CB        56.0310   -4.4130   44.6090 C.3   551  SER551      0.2089
    205  OG        57.1830   -5.2350   44.6530 O.3   551  SER551     -0.2183
@<TRIPOS>BOND
     1    44    43    2
     2    43    42    1
     3    42    45    1
     4    42    41    1
     5    45    46    1
     6    49    50    1
     7    74    73    2
     8    68    69    1
     9    46    47   ar
    10    46    48   ar
    11    69    70    1
    12    69    72    1
    13    60    59    1
    14    73    72    1
    15    73    75   am
    16    71    70    2
    17    55    56    1
    18    50    51    1
    19    50    53    1
    20    56    59    1
    21    56    57    1
    22    58    57    2
    23    59    61    1
    24    51    52    2
    25    54    53    1
    26    57    62   am
    27    62    63    1
    28    65    64    2
    29    64    63    1
    30    92    89    1
    31    92    93    1
    32     3     4    2
    33     3     2    1
    34    87    86    2
    35    89    88    1
    36    89    90    1
    37    63    66    1
    38    86    88   am
    39    86    85    1
    40    95    93   ar
    41    91    90    2
    42     2     1    1
    43     2     5    1
    44    93    94   ar
    45    90    96   am
    46    85    84    1
    47   203   202    2
    48    66    67    1
    49     5     6    1
    50     6     7    1
    51    84    78   am
    52    96    97    1
    53   202   201    1
    54     8     7    1
    55     8     9    2
    56    11     9    1
    57    99    98    2
    58    98    97    1
    59    97   100    1
    60    78    79    2
    61    78    77    1
    62     9    10    1
    63   204   205    1
    64   204   201    1
    65   201   200    1
    66    76    77    1
    67    77    80    1
    68    21    19   ar
    69    21    22   ar
    70   100   101    1
    71    19    17   ar
    72    22    20   ar
    73   101   103   ar
    74   101   102   ar
    75    80    81    1
    76    17    16    1
    77    17    18   ar
    78    20    18   ar
    79    16    13    1
    80    81    82    2
    81    81    83   am
    82   199   198    2
    83    12    13    1
    84   187   186    2
    85   197   198    1
    86   197   196    1
    87    13    14    1
    88   186   196   am
    89   186   185    1
    90   174   173    2
    91    14    15    2
    92   109   108    1
    93   104   105    1
    94   173   175   am
    95   173   172    1
    96   188   185    1
    97   188   189    1
    98   185   184    1
    99   105   108    1
   100   105   106    1
   101    40    38    1
   102    39    38    1
   103   189   190   ar
   104   189   191   ar
   105    38    37    2
   106   172   171    1
   107   190   192   ar
   108   106   107    2
   109   191   193   ar
   110   184   178   am
   111   179   178    2
   112   192   194   ar
   113   193   194   ar
   114   171   168    1
   115   178   177    1
   116   194   195    1
   117    37    36    1
   118   168   169    1
   119   168   167    1
   120    36    35    1
   121   176   177    1
   122   176   169   am
   123   110   111    1
   124   177   180    1
   125    35    34    1
   126   169   170    2
   127   113   112    2
   128   133   132    1
   129   134   132    1
   130    34    31    1
   131   180   182    1
   132   180   181    1
   133   111   112    1
   134   111   114    1
   135    33    32    2
   136   132   131    2
   137    31    32    1
   138    31    30    1
   139   115   114    1
   140   166   165    1
   141   181   183    1
   142   154   153    1
   143   131   130    1
   144   123   121    1
   145   130   129    1
   146   122   121    1
   147   128   129    1
   148   128   125    1
   149   165   164   ar
   150   165   163   ar
   151   153   152    1
   152   152   151    1
   153   121   120    1
   154    23    24    1
   155    23    29    1
   156   164   162   ar
   157   145   144    2
   158    24    25    1
   159    24    27    1
   160    26    25    2
   161   125   126    1
   162   125   124    1
   163   163   161   ar
   164   151   148    1
   165    29    28    1
   166   120   117    1
   167   146   144   am
   168   136   137    1
   169   136   135    1
   170   144   143    1
   171   126   127    2
   172    28    27    1
   173   162   160   ar
   174   137   138    2
   175   137   139   am
   176   161   160   ar
   177   139   140    1
   178   117   118    1
   179   117   116    1
   180   148   149    1
   181   148   147    1
   182   160   159    1
   183   140   143    1
   184   140   141    1
   185   150   149    2
   186   118   119    2
   187   149   155   am
   188   155   156    1
   189   141   142    2
   190   159   156    1
   191   156   157    1
   192   157   158    2
