@<TRIPOS>MOLECULE
tmp/3cvlA00.pdb
 225 212 0 0 0
SMALL
GASTEIGER

@<TRIPOS>ATOM
      1  N         -4.9780   -1.8550    8.6070 N.3    62  GLU62      -0.1245
      2  CA        -4.1190   -2.9590    8.2310 C.3    62  GLU62       0.1567
      3  C         -3.4270   -2.7710    6.8670 C.2    62  GLU62       0.2260
      4  O         -3.2610   -3.7250    6.1150 O.2    62  GLU62      -0.2867
      5  CB        -4.9120   -4.2670    8.2990 C.3    62  GLU62       0.0388
      6  CG        -4.0670   -5.5220    8.4250 C.3    62  GLU62       0.1160
      7  CD        -3.0510   -5.4810    9.5370 C.2    62  GLU62       0.3649
      8  OE1       -3.4450   -5.1840   10.6810 O.co2  62  GLU62      -0.2457
      9  OE2       -1.8670   -5.7750    9.2560 O.co2  62  GLU62      -0.2457
     10  N         -0.0330   -0.9170    6.1040 N.3    64  ASP64      -0.1239
     11  CA         1.1870   -0.1580    6.3390 C.3    64  ASP64       0.1674
     12  C          1.8190    0.4140    5.0420 C.2    64  ASP64       0.2266
     13  O          2.3410    1.5150    5.0250 O.2    64  ASP64      -0.2867
     14  CB         2.1900   -1.0440    7.0670 C.3    64  ASP64       0.1410
     15  CG         1.8050   -1.2960    8.5400 C.2    64  ASP64       0.3668
     16  OD1        1.3160   -0.3830    9.2090 O.co2  64  ASP64      -0.2456
     17  OD2        2.0140   -2.4020    9.0280 O.co2  64  ASP64      -0.2456
     18  N          6.1230    3.0950   13.4870 N.3    90  VAL90      -0.1245
     19  CA         5.2680    1.9220   13.6960 C.3    90  VAL90       0.1561
     20  C          5.1140    1.0950   12.3990 C.2    90  VAL90       0.2260
     21  O          5.4070   -0.0960   12.3630 O.2    90  VAL90      -0.2867
     22  CB         3.9260    2.3820   14.2330 C.3    90  VAL90       0.0252
     23  CG1        2.9180    1.2250   14.2710 C.3    90  VAL90       0.0019
     24  CG2        4.1320    3.0190   15.6350 C.3    90  VAL90       0.0019
     25  N          8.4760   -0.4590   11.4430 N.3    93  THR93      -0.1203
     26  CA         8.7450   -1.5460   12.3820 C.3    93  THR93       0.1994
     27  C          7.9570   -2.7760   11.9650 C.2    93  THR93       0.2618
     28  O          8.5140   -3.8740   11.8990 O.2    93  THR93      -0.2717
     29  CB         8.4640   -1.1260   13.8560 C.3    93  THR93       0.1784
     30  OG1        9.4260   -0.1280   14.2380 O.3    93  THR93      -0.2211
     31  CG2        8.5680   -2.3400   14.8390 C.3    93  THR93       0.0376
     32  N          6.6800   -2.5880   11.6430 N.am   94  ASN94      -0.1960
     33  CA         5.8190   -3.6850   11.1560 C.3    94  ASN94       0.1819
     34  C          6.3090   -4.3000    9.8480 C.2    94  ASN94       0.2621
     35  O          6.1490   -5.4800    9.6410 O.2    94  ASN94      -0.2715
     36  CB         4.3710   -3.1910   10.9230 C.3    94  ASN94       0.1195
     37  CG         3.5900   -2.9390   12.2150 C.2    94  ASN94       0.2630
     38  OD1        4.0220   -3.3010   13.3220 O.2    94  ASN94      -0.2716
     39  ND2        2.4080   -2.3170   12.0630 N.am   94  ASN94      -0.0877
     40  N          6.8490   -3.4670    8.9560 N.am   95  GLU95      -0.1963
     41  CA         7.3180   -3.8760    7.6140 C.3    95  GLU95       0.1733
     42  C          8.7780   -4.2880    7.6120 C.2    95  GLU95       0.2616
     43  O          9.3090   -4.6520    6.5710 O.2    95  GLU95      -0.2715
     44  CB         7.1150   -2.7220    6.5990 C.3    95  GLU95       0.0429
     45  CG         5.6530   -2.4670    6.2580 C.3    95  GLU95       0.1163
     46  CD         5.1790   -3.2540    5.0480 C.2    95  GLU95       0.3649
     47  OE1        5.5190   -2.8410    3.9170 O.co2  95  GLU95      -0.2457
     48  OE2        4.4680   -4.2630    5.2200 O.co2  95  GLU95      -0.2457
     49  N          9.4170   -4.2410    8.7840 N.am   96  HIS96      -0.1973
     50  CA        10.8070   -4.6690    8.9630 C.3    96  HIS96       0.1656
     51  C         11.7480   -3.8660    8.1140 C.2    96  HIS96       0.2291
     52  O         12.6380   -4.4120    7.4950 O.2    96  HIS96      -0.2864
     53  CB        10.9780   -6.1640    8.6710 C.3    96  HIS96       0.0771
     54  CG         9.9910   -7.0230    9.3960 C.ar   96  HIS96       0.0820
     55  ND1       10.0280   -7.2020   10.7640 N.ar   96  HIS96      -0.2267
     56  CD2        8.9320   -7.7340    8.9480 C.ar   96  HIS96       0.1154
     57  CE1        9.0370   -7.9960   11.1270 C.ar   96  HIS96       0.1986
     58  NE2        8.3570   -8.3350   10.0420 N.ar   96  HIS96      -0.2212
     59  N          8.2970    0.6870   20.7820 N.3   153  VAL153     -0.1245
     60  CA         8.5240    0.4330   19.3550 C.3   153  VAL153      0.1561
     61  C          9.9960    0.0690   19.1070 C.2   153  VAL153      0.2260
     62  O         10.2890   -0.8690   18.3500 O.2   153  VAL153     -0.2867
     63  CB         8.0670    1.6220   18.4820 C.3   153  VAL153      0.0252
     64  CG1        8.4990    1.4440   17.0160 C.3   153  VAL153      0.0019
     65  CG2        6.5380    1.8060   18.5840 C.3   153  VAL153      0.0019
     66  N         10.5490   -3.4960   20.3450 N.3   156  ASN156     -0.1240
     67  CA         9.9230   -4.4050   19.3870 C.3   156  ASN156      0.1653
     68  C         10.7970   -4.7310   18.2090 C.2   156  ASN156      0.2266
     69  O         10.9260   -5.8800   17.8410 O.2   156  ASN156     -0.2867
     70  CB         8.5860   -3.8440   18.8780 C.3   156  ASN156      0.1155
     71  CG         7.4440   -4.2460   19.7690 C.2   156  ASN156      0.2627
     72  OD1        6.8340   -5.3090   19.5710 O.2   156  ASN156     -0.2716
     73  ND2        7.2030   -3.4580   20.8130 N.am  156  ASN156     -0.0877
     74  N         10.9940   -8.0160   23.9070 N.3   161  TYR161     -0.1241
     75  CA         9.5580   -7.8080   24.1140 C.3   161  TYR161      0.1605
     76  C          9.1740   -7.5420   25.5620 C.2   161  TYR161      0.2264
     77  O          8.2110   -6.8230   25.8320 O.2   161  TYR161     -0.2867
     78  CB         8.7810   -8.9990   23.5900 C.3   161  TYR161      0.0534
     79  CG         8.8880   -9.1740   22.0930 C.ar  161  TYR161     -0.0201
     80  CD1        8.3410   -8.2380   21.2200 C.ar  161  TYR161     -0.0009
     81  CD2        9.5270  -10.2710   21.5570 C.ar  161  TYR161     -0.0009
     82  CE1        8.4470   -8.3980   19.8520 C.ar  161  TYR161      0.0417
     83  CE2        9.6250  -10.4440   20.2030 C.ar  161  TYR161      0.0417
     84  CZ         9.0870   -9.5080   19.3630 C.ar  161  TYR161      0.1957
     85  OH         9.1980   -9.7010   18.0300 O.3   161  TYR161     -0.2866
     86  N          5.3300   -0.0540   27.5250 N.3   168  LEU168     -0.1245
     87  CA         3.9880    0.1390   26.9590 C.3   168  LEU168      0.1561
     88  C          2.9160    0.0390   28.0500 C.2   168  LEU168      0.2260
     89  O          1.8520    0.6630   27.9630 O.2   168  LEU168     -0.2867
     90  CB         3.7350   -0.8280   25.7980 C.3   168  LEU168      0.0270
     91  CG         4.4350   -0.4540   24.4830 C.3   168  LEU168      0.0019
     92  CD1        4.3700   -1.6140   23.4900 C.3   168  LEU168      0.0001
     93  CD2        3.7910    0.7800   23.8680 C.3   168  LEU168      0.0001
     94  N         -4.5630    2.9370   20.3570 N.3   180  GLN180     -0.1196
     95  CA        -3.2520    2.7830   19.6890 C.3   180  GLN180      0.1782
     96  C         -2.2610    2.1210   20.6690 C.2   180  GLN180      0.2306
     97  O         -1.5690    1.1780   20.3330 O.2   180  GLN180     -0.2863
     98  CB        -2.6700    4.1450   19.1660 C.2   180  GLN180      0.0051
     99  CG        -3.4260    4.9280   18.0260 C.2   180  GLN180      0.0584
    100  CD        -4.6690    4.2570   17.4760 C.2   180  GLN180      0.2840
    101  OE1       -4.5740    3.3940   16.6100 O.2   180  GLN180     -0.2667
    102  NE2       -5.8480    4.6870   17.9380 N.am  180  GLN180     -0.0837
    103  N         -3.2310   -1.6110   21.5950 N.3   183  ASN183     -0.1225
    104  CA        -2.7790   -2.4590   20.4930 C.3   183  ASN183      0.1785
    105  C         -1.2960   -2.7080   20.5430 C.2   183  ASN183      0.2597
    106  O         -0.8870   -3.8390   20.3920 O.2   183  ASN183     -0.2718
    107  CB        -3.0900   -1.8300   19.1390 C.3   183  ASN183      0.1169
    108  CG        -2.7550   -2.7640   17.9660 C.2   183  ASN183      0.2627
    109  OD1       -3.1740   -3.9240   17.9600 O.2   183  ASN183     -0.2716
    110  ND2       -2.0000   -2.2670   16.9800 N.am  183  ASN183     -0.0877
    111  N         -0.4920   -1.6560   20.7220 N.am  184  LYS184     -0.1980
    112  CA         0.9600   -1.8090   20.7660 C.3   184  LYS184      0.1596
    113  C          1.3660   -2.7500   21.8930 C.2   184  LYS184      0.2287
    114  O          2.2340   -3.5730   21.7160 O.2   184  LYS184     -0.2864
    115  CB         1.6680   -0.4720   20.9790 C.3   184  LYS184      0.0298
    116  CG         1.5250    0.5460   19.8670 C.3   184  LYS184      0.0038
    117  CD         2.2620    1.8180   20.2460 C.3   184  LYS184      0.0206
    118  CE         2.4220    2.7850   19.0620 C.3   184  LYS184      0.1093
    119  NZ         1.1120    3.3170   18.5570 N.3   184  LYS184     -0.1314
    120  N          0.3040   -6.3200   20.6350 N.3   187  ALA187     -0.1231
    121  CA         1.2860   -6.8810   19.6830 C.3   187  ALA187      0.1694
    122  C          2.6160   -7.2720   20.3450 C.2   187  ALA187      0.2592
    123  O          3.2040   -8.3290   20.0580 O.2   187  ALA187     -0.2718
    124  CB         1.5300   -5.8920   18.5490 C.3   187  ALA187      0.0304
    125  N          3.0980   -6.4100   21.2220 N.am  188  THR188     -0.1953
    126  CA         4.2890   -6.7150   22.0310 C.3   188  THR188      0.1897
    127  C          4.1010   -8.0330   22.7590 C.2   188  THR188      0.2313
    128  O          4.9030   -8.9540   22.5830 O.2   188  THR188     -0.2863
    129  CB         4.5940   -5.5760   23.0140 C.3   188  THR188      0.1794
    130  OG1        4.7520   -4.3660   22.2650 O.3   188  THR188     -0.2208
    131  CG2        5.8480   -5.8660   23.7850 C.3   188  THR188      0.0378
    132  N          1.7350  -10.4290   22.1400 N.3   190  ALA190     -0.1231
    133  CA         1.5970  -11.5400   21.1890 C.3   190  ALA190      0.1694
    134  C          2.9890  -11.9770   20.7150 C.2   190  ALA190      0.2592
    135  O          3.3720  -13.1450   20.8280 O.2   190  ALA190     -0.2718
    136  CB         0.7710  -11.1280   20.0080 C.3   190  ALA190      0.0304
    137  N          3.7460  -11.0210   20.1820 N.am  191  ASN191     -0.1974
    138  CA         5.0430  -11.3320   19.5770 C.3   191  ASN191      0.1688
    139  C          6.0250  -11.9240   20.5770 C.2   191  ASN191      0.2292
    140  O          6.8730  -12.7220   20.1880 O.2   191  ASN191     -0.2864
    141  CB         5.6180  -10.1030   18.8700 C.3   191  ASN191      0.1181
    142  CG         4.8130   -9.7290   17.6440 C.2   191  ASN191      0.2629
    143  OD1        3.8730  -10.4240   17.2920 O.2   191  ASN191     -0.2716
    144  ND2        5.1650   -8.6400   17.0010 N.am  191  ASN191     -0.0877
    145  N         -5.6430   -6.3070   23.5130 N.3   202  TYR202     -0.1241
    146  CA        -6.4630   -6.1540   22.3220 C.3   202  TYR202      0.1605
    147  C         -7.9270   -5.8970   22.6120 C.2   202  TYR202      0.2264
    148  O         -8.5620   -5.1120   21.9290 O.2   202  TYR202     -0.2867
    149  CB        -6.3810   -7.3940   21.4750 C.3   202  TYR202      0.0534
    150  CG        -5.0530   -7.6660   20.8650 C.ar  202  TYR202     -0.0201
    151  CD1       -4.3260   -6.6650   20.2540 C.ar  202  TYR202     -0.0009
    152  CD2       -4.5300   -8.9390   20.8650 C.ar  202  TYR202     -0.0009
    153  CE1       -3.1200   -6.9300   19.6580 C.ar  202  TYR202      0.0417
    154  CE2       -3.3180   -9.2040   20.2720 C.ar  202  TYR202      0.0417
    155  CZ        -2.6200   -8.1950   19.6630 C.ar  202  TYR202      0.1957
    156  OH        -1.3870   -8.4650   19.0900 O.3   202  TYR202     -0.2866
    157  N        -11.5570   -0.8620   14.8500 N.3   212  TYR212     -0.1241
    158  CA       -10.1090   -0.8870   14.7380 C.3   212  TYR212      0.1605
    159  C         -9.6680   -2.2200   14.1230 C.2   212  TYR212      0.2264
    160  O         -9.3760   -3.2060   14.8260 O.2   212  TYR212     -0.2867
    161  CB        -9.5100   -0.6850   16.1260 C.3   212  TYR212      0.0534
    162  CG        -8.0720   -0.2420   16.2350 C.ar  212  TYR212     -0.0201
    163  CD1       -7.2040   -0.2410   15.1480 C.ar  212  TYR212     -0.0009
    164  CD2       -7.5670    0.1470   17.4800 C.ar  212  TYR212     -0.0009
    165  CE1       -5.8720    0.1360   15.2990 C.ar  212  TYR212      0.0417
    166  CE2       -6.2370    0.5310   17.6390 C.ar  212  TYR212      0.0417
    167  CZ        -5.4020    0.5090   16.5560 C.ar  212  TYR212      0.1957
    168  OH        -4.1150    0.9000   16.7370 O.3   212  TYR212     -0.2866
    169  N         -7.0340   -3.3000   12.4470 N.3   214  ARG214     -0.1245
    170  CA        -5.7370   -3.8730   12.7910 C.3   214  ARG214      0.1563
    171  C         -5.8770   -4.7310   14.0470 C.2   214  ARG214      0.2260
    172  O         -5.3450   -5.8260   14.1050 O.2   214  ARG214     -0.2867
    173  CB        -4.6470   -2.7880   12.9450 C.3   214  ARG214      0.0307
    174  CG        -3.3670   -3.2660   13.6660 C.3   214  ARG214      0.0489
    175  CD        -2.1310   -2.5440   13.2290 C.3   214  ARG214      0.2205
    176  NE        -1.7490   -2.9810   11.9010 N.pl3 214  ARG214     -0.0865
    177  CZ        -1.0100   -2.2740   11.0480 C.cat 214  ARG214      0.5346
    178  NH1       -0.5320   -1.0920   11.3790 N.pl3 214  ARG214      0.1354
    179  NH2       -0.7530   -2.7660    9.8640 N.pl3 214  ARG214      0.1354
    180  N         -7.5610   -8.0910   13.3730 N.3   217  TYR217     -0.1227
    181  CA        -6.6040   -9.0420   12.7110 C.3   217  TYR217      0.1736
    182  C         -5.5790   -9.6090   13.7040 C.2   217  TYR217      0.2595
    183  O         -5.3710  -10.8040   13.7910 O.2   217  TYR217     -0.2718
    184  CB        -5.9160   -8.3970   11.4890 C.3   217  TYR217      0.0548
    185  CG        -4.6610   -9.0680   10.9630 C.ar  217  TYR217     -0.0200
    186  CD1       -4.7010   -9.9680    9.8930 C.ar  217  TYR217     -0.0009
    187  CD2       -3.4320   -8.7660   11.5090 C.ar  217  TYR217     -0.0009
    188  CE1       -3.5200  -10.5640    9.4000 C.ar  217  TYR217      0.0417
    189  CE2       -2.2510   -9.3450   11.0490 C.ar  217  TYR217      0.0417
    190  CZ        -2.2820  -10.2410    9.9990 C.ar  217  TYR217      0.1957
    191  OH        -1.0470  -10.7780    9.5630 O.3   217  TYR217     -0.2866
    192  N         -4.9690   -8.7360   14.4790 N.am  218  ASN218     -0.1974
    193  CA        -4.1100   -9.1410   15.5660 C.3   218  ASN218      0.1688
    194  C         -4.7440  -10.2010   16.4670 C.2   218  ASN218      0.2292
    195  O         -4.1040  -11.1910   16.8000 O.2   218  ASN218     -0.2864
    196  CB        -3.7080   -7.9000   16.3820 C.3   218  ASN218      0.1181
    197  CG        -2.5750   -7.1200   15.7490 C.2   218  ASN218      0.2629
    198  OD1       -1.8210   -7.6500   14.9600 O.2   218  ASN218     -0.2716
    199  ND2       -2.4360   -5.8650   16.1180 N.am  218  ASN218     -0.0877
    200  N         -4.7920  -13.3970   14.7940 N.3   221  VAL221     -0.1245
    201  CA        -3.4730  -13.9930   14.7220 C.3   221  VAL221      0.1561
    202  C         -3.1900  -14.7880   16.0030 C.2   221  VAL221      0.2260
    203  O         -2.8100  -15.9470   15.9380 O.2   221  VAL221     -0.2867
    204  CB        -2.3880  -12.9420   14.4110 C.3   221  VAL221      0.0252
    205  CG1       -1.0050  -13.5460   14.5460 C.3   221  VAL221      0.0019
    206  CG2       -2.5670  -12.4480   12.9940 C.3   221  VAL221      0.0019
    207  N         -2.5780  -18.6590   16.6880 N.3   225  ASN225     -0.1240
    208  CA        -1.4080  -19.2060   17.3570 C.3   225  ASN225      0.1653
    209  C         -1.8350  -20.1900   18.4480 C.2   225  ASN225      0.2266
    210  O         -1.3250  -21.2980   18.4930 O.2   225  ASN225     -0.2867
    211  CB        -0.4990  -18.0900   17.8890 C.3   225  ASN225      0.1155
    212  CG         0.1430  -17.2750   16.7580 C.2   225  ASN225      0.2627
    213  OD1        0.1090  -17.6710   15.5850 O.2   225  ASN225     -0.2716
    214  ND2        0.6900  -16.1230   17.0980 N.am  225  ASN225     -0.0877
    215  N         -6.2530  -16.0250    4.4950 N.3   261  PHE261     -0.1241
    216  CA        -5.9440  -16.3850    5.8710 C.3   261  PHE261      0.1605
    217  C         -7.1380  -17.0320    6.5830 C.2   261  PHE261      0.2264
    218  O         -7.0070  -18.0650    7.1800 O.2   261  PHE261     -0.2867
    219  CB        -5.5060  -15.1230    6.6090 C.3   261  PHE261      0.0534
    220  CG        -5.2580  -15.3270    8.0890 C.ar  261  PHE261     -0.0203
    221  CD1       -4.8560  -16.5640    8.6030 C.ar  261  PHE261     -0.0042
    222  CD2       -5.3930  -14.2720    8.9640 C.ar  261  PHE261     -0.0042
    223  CE1       -4.6400  -16.7250    9.9720 C.ar  261  PHE261     -0.0003
    224  CE2       -5.1680  -14.4380   10.3200 C.ar  261  PHE261     -0.0003
    225  CZ        -4.8080  -15.6420   10.8250 C.ar  261  PHE261     -0.0000
@<TRIPOS>BOND
     1    47    46   ar
     2   215   216    1
     3    13    12    2
     4    12    11    1
     5    46    48   ar
     6    46    45    1
     7   216   217    1
     8   216   219    1
     9    10    11    1
    10     4     3    2
    11    45    44    1
    12    11    14    1
    13    43    42    2
    14   217   218    2
    15    44    41    1
    16   219   220    1
    17     3     2    1
    18    14    15    1
    19    52    51    2
    20    42    41    1
    21    42    49   am
    22    41    40    1
    23   220   221   ar
    24   220   222   ar
    25    51    50    1
    26     2     5    1
    27     2     1    1
    28     5     6    1
    29     6     7    1
    30    15    17   ar
    31    15    16   ar
    32   221   223   ar
    33    53    50    1
    34    53    54    1
    35    49    50    1
    36    56    54   ar
    37    56    58   ar
    38    40    34   am
    39   222   224   ar
    40     9     7   ar
    41    54    55   ar
    42   188   186   ar
    43   188   190   ar
    44     7     8   ar
    45   191   190    1
    46    35    34    2
    47    34    33    1
    48   179   177    1
    49   186   185   ar
    50   223   225   ar
    51   190   189   ar
    52    58    57   ar
    53   224   225   ar
    54    55    57   ar
    55    36    33    1
    56    36    37    1
    57   185   184    1
    58   185   187   ar
    59   177   178    1
    60   177   176    2
    61   189   187   ar
    62    33    32    1
    63    25    26    1
    64   184   181    1
    65    32    27   am
    66    28    27    2
    67   176   175    1
    68    27    26    1
    69    39    37   am
    70    37    38    2
    71    21    20    2
    72    26    29    1
    73    20    19    1
    74   169   170    1
    75   181   180    1
    76   181   182    1
    77   170   173    1
    78   170   171    1
    79   173   174    1
    80   206   204    1
    81   175   174    1
    82    18    19    1
    83    19    22    1
    84   182   183    2
    85   182   192   am
    86    29    30    1
    87    29    31    1
    88   171   172    2
    89   159   158    1
    90   159   160    2
    91    22    23    1
    92    22    24    1
    93   204   205    1
    94   204   201    1
    95   192   193    1
    96   201   200    1
    97   201   202    1
    98   158   157    1
    99   158   161    1
   100   198   197    2
   101   163   165   ar
   102   163   162   ar
   103   165   167   ar
   104   193   196    1
   105   193   194    1
   106   213   212    2
   107   197   199   am
   108   197   196    1
   109   203   202    2
   110   161   162    1
   111   162   164   ar
   112   194   195    2
   113   167   168    1
   114   167   166   ar
   115   101   100    2
   116   207   208    1
   117   212   214   am
   118   212   211    1
   119   110   108   am
   120   144   142   am
   121    64    63    1
   122   143   142    2
   123   208   211    1
   124   208   209    1
   125   100   102   am
   126   100    99    1
   127   164   166   ar
   128   142   141    1
   129    69    68    2
   130   109   108    2
   131   108   107    1
   132    99    98    2
   133    85    84    1
   134    68    67    1
   135    62    61    2
   136   209   210    2
   137    63    65    1
   138    63    60    1
   139   124   121    1
   140   119   118    1
   141   141   138    1
   142    70    67    1
   143    70    71    1
   144   118   117    1
   145   156   155    1
   146    61    60    1
   147   107   104    1
   148    98    95    1
   149    60    59    1
   150    84    82   ar
   151    84    83   ar
   152    67    66    1
   153    72    71    2
   154   138   137    1
   155   138   139    1
   156   153   155   ar
   157   153   151   ar
   158   155   154   ar
   159   121   122    1
   160   121   120    1
   161    95    94    1
   162    95    96    1
   163    71    73   am
   164    82    80   ar
   165   116   117    1
   166   116   115    1
   167   136   133    1
   168   123   122    2
   169   137   134   am
   170   140   139    2
   171    83    81   ar
   172   151   150   ar
   173   154   152   ar
   174    97    96    2
   175   122   125   am
   176   106   105    2
   177   104   105    1
   178   104   103    1
   179   105   111   am
   180   134   135    2
   181   134   133    1
   182   111   112    1
   183   112   115    1
   184   112   113    1
   185   150   152   ar
   186   150   149    1
   187   133   132    1
   188    80    79   ar
   189   125   126    1
   190   149   146    1
   191    81    79   ar
   192   114   113    2
   193   148   147    2
   194   126   127    1
   195   126   129    1
   196    79    78    1
   197   130   129    1
   198   146   147    1
   199   146   145    1
   200   128   127    2
   201   129   131    1
   202    92    91    1
   203    78    75    1
   204    93    91    1
   205    74    75    1
   206    75    76    1
   207    91    90    1
   208    76    77    2
   209    90    87    1
   210    87    86    1
   211    87    88    1
   212    89    88    2
