@<TRIPOS>MOLECULE
tmp/3cvnA00.pdb
 210 197 0 0 0
SMALL
GASTEIGER

@<TRIPOS>ATOM
      1  N         -4.9250   -1.6570    9.2720 N.3    62  GLU62      -0.1245
      2  CA        -4.1240   -2.8520    9.0130 C.3    62  GLU62       0.1567
      3  C         -3.4650   -2.7840    7.6280 C.2    62  GLU62       0.2260
      4  O         -3.3310   -3.7780    6.9680 O.2    62  GLU62      -0.2867
      5  CB        -5.0080   -4.1130    9.1870 C.3    62  GLU62       0.0388
      6  CG        -4.2860   -5.4430    9.4310 C.3    62  GLU62       0.1160
      7  CD        -3.0610   -5.2920   10.2620 C.2    62  GLU62       0.3649
      8  OE1       -3.1490   -4.9280   11.4570 O.co2  62  GLU62      -0.2457
      9  OE2       -1.9880   -5.5120    9.7070 O.co2  62  GLU62      -0.2457
     10  N         -0.1700   -0.9450    6.6750 N.3    64  ASP64      -0.1239
     11  CA         1.0780   -0.2180    6.8940 C.3    64  ASP64       0.1674
     12  C          1.7480    0.3050    5.6320 C.2    64  ASP64       0.2266
     13  O          2.3140    1.3970    5.6470 O.2    64  ASP64      -0.2867
     14  CB         2.1110   -1.0720    7.6360 C.3    64  ASP64       0.1410
     15  CG         1.8790   -1.1020    9.1200 C.2    64  ASP64       0.3668
     16  OD1        1.4140   -0.0850    9.6480 O.co2  64  ASP64      -0.2456
     17  OD2        2.1540   -2.1550    9.7430 O.co2  64  ASP64      -0.2456
     18  N          6.2490    3.5090   13.8460 N.3    90  VAL90      -0.1245
     19  CA         5.4410    2.3520   14.1830 C.3    90  VAL90       0.1561
     20  C          5.2750    1.4360   12.9800 C.2    90  VAL90       0.2260
     21  O          5.5350    0.2410   13.0800 O.2    90  VAL90      -0.2867
     22  CB         4.0770    2.7600   14.7180 C.3    90  VAL90       0.0252
     23  CG1        3.1520    1.5440   14.8200 C.3    90  VAL90       0.0019
     24  CG2        4.2440    3.4670   16.0800 C.3    90  VAL90       0.0019
     25  N          8.4430   -0.2220   11.8960 N.3    93  THR93      -0.1203
     26  CA         8.8580   -1.2700   12.8260 C.3    93  THR93       0.1994
     27  C          8.1090   -2.5240   12.4530 C.2    93  THR93       0.2618
     28  O          8.7040   -3.6090   12.3460 O.2    93  THR93      -0.2717
     29  CB         8.6410   -0.8950   14.3120 C.3    93  THR93       0.1784
     30  OG1        9.4560    0.2420   14.6320 O.3    93  THR93      -0.2211
     31  CG2        9.0420   -2.0650   15.2450 C.3    93  THR93       0.0376
     32  N          6.8130   -2.3620   12.1890 N.am   94  ASN94      -0.1960
     33  CA         5.9630   -3.4750   11.7720 C.3    94  ASN94       0.1819
     34  C          6.4710   -4.1060   10.4890 C.2    94  ASN94       0.2621
     35  O          6.3860   -5.3180   10.2830 O.2    94  ASN94      -0.2715
     36  CB         4.5160   -3.0140   11.5830 C.3    94  ASN94       0.1195
     37  CG         3.8000   -2.7450   12.9120 C.2    94  ASN94       0.2630
     38  OD1        4.2440   -3.1710   13.9820 O.2    94  ASN94      -0.2716
     39  ND2        2.7040   -2.0140   12.8380 N.am   94  ASN94      -0.0877
     40  N          6.9990   -3.2560    9.6260 N.am   95  GLU95      -0.1963
     41  CA         7.4550   -3.6810    8.3310 C.3    95  GLU95       0.1733
     42  C          8.8990   -4.1630    8.3710 C.2    95  GLU95       0.2616
     43  O          9.4630   -4.4960    7.3260 O.2    95  GLU95      -0.2715
     44  CB         7.2710   -2.5200    7.3270 C.3    95  GLU95       0.0429
     45  CG         5.8410   -2.3130    6.8120 C.3    95  GLU95       0.1163
     46  CD         5.3490   -3.4910    5.9900 C.2    95  GLU95       0.3649
     47  OE1        5.9800   -3.8170    4.9770 O.co2  95  GLU95      -0.2457
     48  OE2        4.3230   -4.0820    6.3430 O.co2  95  GLU95      -0.2457
     49  N          9.5240   -4.1830    9.5540 N.am   96  HIS96      -0.1973
     50  CA        10.9420   -4.5640    9.6680 C.3    96  HIS96       0.1656
     51  C         11.8750   -3.7420    8.7860 C.2    96  HIS96       0.2291
     52  O         12.7980   -4.2800    8.1810 O.2    96  HIS96      -0.2864
     53  CB        11.1730   -6.0620    9.3700 C.3    96  HIS96       0.0771
     54  CG        10.3690   -6.9730   10.2340 C.ar   96  HIS96       0.0820
     55  ND1       10.1560   -6.7240   11.5720 N.ar   96  HIS96      -0.2267
     56  CD2        9.7430   -8.1390    9.9640 C.ar   96  HIS96       0.1154
     57  CE1        9.4260   -7.6930   12.0920 C.ar   96  HIS96       0.1986
     58  NE2        9.1510   -8.5620   11.1360 N.ar   96  HIS96      -0.2212
     59  N          8.3730    1.2830   21.3100 N.3   158  VAL158     -0.1245
     60  CA         8.6230    1.0300   19.8810 C.3   158  VAL158      0.1561
     61  C         10.0750    0.6330   19.6280 C.2   158  VAL158      0.2260
     62  O         10.3520   -0.4430   19.0930 O.2   158  VAL158     -0.2867
     63  CB         8.1960    2.2350   19.0160 C.3   158  VAL158      0.0252
     64  CG1        8.4620    1.9580   17.5200 C.3   158  VAL158      0.0019
     65  CG2        6.6900    2.5640   19.3000 C.3   158  VAL158      0.0019
     66  N         10.6510   -2.8410   20.7630 N.3   161  ASN161     -0.1240
     67  CA        10.0700   -3.8620   19.8910 C.3   161  ASN161      0.1653
     68  C         10.9850   -4.1250   18.7020 C.2   161  ASN161      0.2266
     69  O         11.1340   -5.2580   18.2970 O.2   161  ASN161     -0.2867
     70  CB         8.6770   -3.4620   19.3820 C.3   161  ASN161      0.1155
     71  CG         7.5450   -3.8310   20.3510 C.2   161  ASN161      0.2627
     72  OD1        6.9360   -4.9060   20.2400 O.2   161  ASN161     -0.2716
     73  ND2        7.2390   -2.9370   21.2700 N.am  161  ASN161     -0.0877
     74  N          5.6470    0.4700   27.7860 N.3   173  LEU173     -0.1245
     75  CA         4.3100    0.6170   27.2450 C.3   173  LEU173      0.1561
     76  C          3.2750    0.5570   28.3550 C.2   173  LEU173      0.2260
     77  O          2.3190    1.3510   28.3600 O.2   173  LEU173     -0.2867
     78  CB         4.0750   -0.3660   26.0850 C.3   173  LEU173      0.0270
     79  CG         4.6420    0.2460   24.8050 C.3   173  LEU173      0.0019
     80  CD1        4.6840   -0.7330   23.6770 C.3   173  LEU173      0.0001
     81  CD2        3.8300    1.5030   24.3750 C.3   173  LEU173      0.0001
     82  N         -3.1880   -1.1490   22.3110 N.3   188  ASN188     -0.1225
     83  CA        -2.7740   -2.0550   21.2310 C.3   188  ASN188      0.1785
     84  C         -1.2900   -2.3320   21.1960 C.2   188  ASN188      0.2597
     85  O         -0.8570   -3.4720   21.0710 O.2   188  ASN188     -0.2718
     86  CB        -3.1830   -1.5430   19.8500 C.3   188  ASN188      0.1169
     87  CG        -2.7890   -2.5190   18.7890 C.2   188  ASN188      0.2627
     88  OD1       -3.2700   -3.6600   18.8000 O.2   188  ASN188     -0.2716
     89  ND2       -1.8500   -2.1270   17.9310 N.am  188  ASN188     -0.0877
     90  N         -0.5020   -1.2700   21.3240 N.am  189  LYS189     -0.1980
     91  CA         0.9430   -1.3580   21.3270 C.3   189  LYS189      0.1596
     92  C          1.4600   -2.2620   22.4490 C.2   189  LYS189      0.2287
     93  O          2.3110   -3.1360   22.2220 O.2   189  LYS189     -0.2864
     94  CB         1.5480    0.0620   21.3740 C.3   189  LYS189      0.0298
     95  CG         1.4380    0.7400   20.0210 C.3   189  LYS189      0.0038
     96  CD         1.6830    2.2440   19.9830 C.3   189  LYS189      0.0206
     97  CE         1.3820    2.7780   18.5500 C.3   189  LYS189      0.1093
     98  NZ         1.4340    4.2700   18.4760 N.3   189  LYS189     -0.1314
     99  N          0.4430   -5.8320   21.4290 N.3   192  ALA192     -0.1231
    100  CA         1.3010   -6.3690   20.3580 C.3   192  ALA192      0.1694
    101  C          2.6670   -6.7450   20.9030 C.2   192  ALA192      0.2592
    102  O          3.2460   -7.7550   20.5260 O.2   192  ALA192     -0.2718
    103  CB         1.4440   -5.3860   19.2510 C.3   192  ALA192      0.0304
    104  N          3.1630   -5.9230   21.8110 N.am  193  THR193     -0.1953
    105  CA         4.4350   -6.1770   22.4730 C.3   193  THR193      0.1897
    106  C          4.3950   -7.4510   23.3320 C.2   193  THR193      0.2313
    107  O          5.3190   -8.2850   23.3080 O.2   193  THR193     -0.2863
    108  CB         4.7980   -5.0010   23.3770 C.3   193  THR193      0.1794
    109  OG1        4.9990   -3.8110   22.5840 O.3   193  THR193     -0.2208
    110  CG2        6.0540   -5.3420   24.1650 C.3   193  THR193      0.0378
    111  N          2.1660   -9.9630   23.0370 N.3   195  ALA195     -0.1231
    112  CA         1.9750  -11.1000   22.1540 C.3   195  ALA195      0.1694
    113  C          3.2990  -11.5540   21.5540 C.2   195  ALA195      0.2592
    114  O          3.6500  -12.7300   21.6470 O.2   195  ALA195     -0.2718
    115  CB         0.9830  -10.7790   21.0680 C.3   195  ALA195      0.0304
    116  N          4.0290  -10.6250   20.9470 N.am  196  ASN196     -0.1974
    117  CA         5.3150  -10.9590   20.3390 C.3   196  ASN196      0.1688
    118  C          6.3600  -11.3750   21.3890 C.2   196  ASN196      0.2292
    119  O          7.2290  -12.1600   21.0890 O.2   196  ASN196     -0.2864
    120  CB         5.8390   -9.8170   19.4560 C.3   196  ASN196      0.1181
    121  CG         4.9920   -9.5920   18.2210 C.2   196  ASN196      0.2629
    122  OD1        4.2270  -10.4510   17.8010 O.2   196  ASN196     -0.2716
    123  ND2        5.1210   -8.4260   17.6400 N.am  196  ASN196     -0.0877
    124  N         -5.4950   -6.0430   24.2740 N.3   207  TYR207     -0.1241
    125  CA        -6.3130   -5.8900   23.0500 C.3   207  TYR207      0.1605
    126  C         -7.8000   -5.6370   23.3170 C.2   207  TYR207      0.2264
    127  O         -8.4350   -4.8180   22.6450 O.2   207  TYR207     -0.2867
    128  CB        -6.2000   -7.1270   22.1760 C.3   207  TYR207      0.0534
    129  CG        -4.8370   -7.3750   21.5740 C.ar  207  TYR207     -0.0201
    130  CD1       -4.0820   -6.3440   21.0680 C.ar  207  TYR207     -0.0009
    131  CD2       -4.3540   -8.6550   21.4500 C.ar  207  TYR207     -0.0009
    132  CE1       -2.8380   -6.5800   20.4840 C.ar  207  TYR207      0.0417
    133  CE2       -3.1360   -8.9120   20.8940 C.ar  207  TYR207      0.0417
    134  CZ        -2.3690   -7.8810   20.4110 C.ar  207  TYR207      0.1957
    135  OH        -1.1680   -8.1710   19.8230 O.3   207  TYR207     -0.2866
    136  N        -11.3780   -0.5820   15.5750 N.3   217  TYR217     -0.1241
    137  CA        -9.9250   -0.6580   15.4590 C.3   217  TYR217      0.1605
    138  C         -9.5300   -1.9790   14.7900 C.2   217  TYR217      0.2264
    139  O         -9.2720   -2.9640   15.4700 O.2   217  TYR217     -0.2867
    140  CB        -9.3050   -0.5620   16.8610 C.3   217  TYR217      0.0534
    141  CG        -7.8460   -0.1430   16.9800 C.ar  217  TYR217     -0.0201
    142  CD1       -6.9520   -0.2700   15.9310 C.ar  217  TYR217     -0.0009
    143  CD2       -7.3650    0.3540   18.1770 C.ar  217  TYR217     -0.0009
    144  CE1       -5.6250    0.1080   16.0800 C.ar  217  TYR217      0.0417
    145  CE2       -6.0610    0.7220   18.3290 C.ar  217  TYR217      0.0417
    146  CZ        -5.1880    0.6030   17.2890 C.ar  217  TYR217      0.1957
    147  OH        -3.8920    0.9820   17.4960 O.3   217  TYR217     -0.2866
    148  N         -6.9630   -3.1460   13.1440 N.3   219  ARG219     -0.1245
    149  CA        -5.6590   -3.7020   13.5480 C.3   219  ARG219      0.1563
    150  C         -5.7370   -4.5040   14.8550 C.2   219  ARG219      0.2260
    151  O         -5.1540   -5.5750   14.9800 O.2   219  ARG219     -0.2867
    152  CB        -4.6040   -2.6000   13.6780 C.3   219  ARG219      0.0307
    153  CG        -3.3100   -3.0380   14.3260 C.3   219  ARG219      0.0489
    154  CD        -2.1600   -2.2460   13.7710 C.3   219  ARG219      0.2205
    155  NE        -1.7370   -2.8160   12.5080 N.pl3 219  ARG219     -0.0865
    156  CZ        -0.9060   -2.2480   11.6630 C.cat 219  ARG219      0.5346
    157  NH1       -0.4050   -1.0490   11.9010 N.pl3 219  ARG219      0.1354
    158  NH2       -0.5830   -2.9030   10.5560 N.pl3 219  ARG219      0.1354
    159  N         -7.4760   -7.9080   14.1060 N.3   222  TYR222     -0.1227
    160  CA        -6.5050   -8.7820   13.4570 C.3   222  TYR222      0.1736
    161  C         -5.5260   -9.3360   14.4880 C.2   222  TYR222      0.2595
    162  O         -5.2890  -10.5440   14.5400 O.2   222  TYR222     -0.2718
    163  CB        -5.7070   -8.0340   12.3840 C.3   222  TYR222      0.0548
    164  CG        -4.5250   -8.8440   11.8630 C.ar  222  TYR222     -0.0200
    165  CD1       -4.7260  -10.0100   11.1270 C.ar  222  TYR222     -0.0009
    166  CD2       -3.2050   -8.4510   12.1270 C.ar  222  TYR222     -0.0009
    167  CE1       -3.6380  -10.7680   10.6490 C.ar  222  TYR222      0.0417
    168  CE2       -2.1010   -9.2110   11.6570 C.ar  222  TYR222      0.0417
    169  CZ        -2.3400  -10.3620   10.9170 C.ar  222  TYR222      0.1957
    170  OH        -1.2710  -11.1060   10.4540 O.3   222  TYR222     -0.2866
    171  N         -4.9550   -8.4500   15.2860 N.am  223  ASN223     -0.1974
    172  CA        -4.0250   -8.8500   16.3390 C.3   223  ASN223      0.1688
    173  C         -4.6740   -9.8830   17.2730 C.2   223  ASN223      0.2292
    174  O         -4.0220  -10.8400   17.6490 O.2   223  ASN223     -0.2864
    175  CB        -3.5150   -7.6600   17.1560 C.3   223  ASN223      0.1181
    176  CG        -2.4050   -6.8550   16.4680 C.2   223  ASN223      0.2629
    177  OD1       -1.7450   -7.3320   15.5710 O.2   223  ASN223     -0.2716
    178  ND2       -2.1780   -5.6230   16.9430 N.am  223  ASN223     -0.0877
    179  N         -4.8280  -13.1750   15.6870 N.3   226  VAL226     -0.1245
    180  CA        -3.4960  -13.7590   15.7120 C.3   226  VAL226      0.1561
    181  C         -3.2110  -14.4150   17.0620 C.2   226  VAL226      0.2260
    182  O         -2.8180  -15.5700   17.1290 O.2   226  VAL226     -0.2867
    183  CB        -2.4150  -12.7030   15.3810 C.3   226  VAL226      0.0252
    184  CG1       -1.0430  -13.1790   15.7470 C.3   226  VAL226      0.0019
    185  CG2       -2.4570  -12.3390   13.8270 C.3   226  VAL226      0.0019
    186  N         -2.9260  -18.4490   17.9260 N.3   230  ASN230     -0.1240
    187  CA        -1.7030  -18.8790   18.6120 C.3   230  ASN230      0.1653
    188  C         -1.9710  -19.7550   19.8610 C.2   230  ASN230      0.2266
    189  O         -1.2300  -20.7040   20.1600 O.2   230  ASN230     -0.2867
    190  CB        -0.9130  -17.6140   19.0600 C.3   230  ASN230      0.1155
    191  CG         0.0150  -17.0510   17.9670 C.2   230  ASN230      0.2627
    192  OD1        0.5550  -17.7880   17.1510 O.2   230  ASN230     -0.2716
    193  ND2        0.2190  -15.7290   17.9800 N.am  230  ASN230     -0.0877
    194  N         -5.6880  -11.6310    1.6580 N.3   260  SER260     -0.1217
    195  CA        -4.7760  -12.2960    2.6030 C.3   260  SER260      0.1889
    196  C         -5.4920  -12.6450    3.9250 C.2   260  SER260      0.2288
    197  O         -5.2270  -13.6830    4.5260 O.2   260  SER260     -0.2866
    198  CB        -3.5480  -11.4130    2.8880 C.3   260  SER260      0.2089
    199  OG        -3.9460  -10.0960    3.2470 O.3   260  SER260     -0.2183
    200  N         -6.1010  -16.3320    5.5800 N.3   264  PHE264     -0.1241
    201  CA        -5.8720  -16.6140    6.9830 C.3   264  PHE264      0.1605
    202  C         -7.1660  -17.2360    7.5800 C.2   264  PHE264      0.2264
    203  O         -7.1250  -18.2810    8.2250 O.2   264  PHE264     -0.2867
    204  CB        -5.4040  -15.3220    7.6750 C.3   264  PHE264      0.0534
    205  CG        -5.1730  -15.4380    9.1650 C.ar  264  PHE264     -0.0203
    206  CD1       -4.8250  -16.6280    9.7550 C.ar  264  PHE264     -0.0042
    207  CD2       -5.2450  -14.3020    9.9700 C.ar  264  PHE264     -0.0042
    208  CE1       -4.6100  -16.7070   11.1280 C.ar  264  PHE264     -0.0003
    209  CE2       -5.0260  -14.3830   11.3620 C.ar  264  PHE264     -0.0003
    210  CZ        -4.7060  -15.5810   11.9220 C.ar  264  PHE264     -0.0000
@<TRIPOS>BOND
     1   194   195    1
     2   195   198    1
     3   195   196    1
     4   198   199    1
     5   196   197    2
     6    47    46   ar
     7   200   201    1
     8    12    13    2
     9    12    11    1
    10    46    48   ar
    11    46    45    1
    12    10    11    1
    13    45    44    1
    14    11    14    1
    15     4     3    2
    16   201   202    1
    17   201   204    1
    18    43    42    2
    19    44    41    1
    20   202   203    2
    21     3     2    1
    22    14    15    1
    23   204   205    1
    24    52    51    2
    25    41    42    1
    26    41    40    1
    27    42    49   am
    28    51    50    1
    29     2     5    1
    30     2     1    1
    31    15    16   ar
    32    15    17   ar
    33   205   206   ar
    34   205   207   ar
    35     5     6    1
    36    53    50    1
    37    53    54    1
    38     6     7    1
    39    49    50    1
    40    40    34   am
    41     9     7   ar
    42   206   208   ar
    43    56    54   ar
    44    56    58   ar
    45   207   209   ar
    46    54    55   ar
    47     7     8   ar
    48    35    34    2
    49   170   169    1
    50    34    33    1
    51   158   156    1
    52   167   169   ar
    53   167   165   ar
    54   169   168   ar
    55   165   164   ar
    56   208   210   ar
    57    58    57   ar
    58   209   210   ar
    59    55    57   ar
    60    36    33    1
    61    36    37    1
    62   168   166   ar
    63   156   157    1
    64   156   155    2
    65    33    32    1
    66   164   166   ar
    67   164   163    1
    68    25    26    1
    69    32    27   am
    70    28    27    2
    71   163   160    1
    72    27    26    1
    73   155   154    1
    74    26    29    1
    75    39    37   am
    76    37    38    2
    77    20    21    2
    78    20    19    1
    79   148   149    1
    80   160   159    1
    81   160   161    1
    82   149   152    1
    83   149   150    1
    84   152   153    1
    85   154   153    1
    86   185   183    1
    87    18    19    1
    88    19    22    1
    89    29    30    1
    90    29    31    1
    91   161   162    2
    92   161   171   am
    93    22    23    1
    94    22    24    1
    95   138   137    1
    96   138   139    2
    97   150   151    2
    98   171   172    1
    99   183   180    1
   100   183   184    1
   101   137   136    1
   102   137   140    1
   103   177   176    2
   104   179   180    1
   105   180   181    1
   106   142   144   ar
   107   142   141   ar
   108   144   146   ar
   109   172   175    1
   110   172   173    1
   111   176   178   am
   112   176   175    1
   113   140   141    1
   114   141   143   ar
   115   181   182    2
   116   192   191    2
   117   173   174    2
   118   146   147    1
   119   146   145   ar
   120    64    63    1
   121   123   121   am
   122   122   121    2
   123   186   187    1
   124    89    87   am
   125   191   193   am
   126   191   190    1
   127   143   145   ar
   128   121   120    1
   129    69    68    2
   130    98    97    1
   131    97    96    1
   132   187   190    1
   133   187   188    1
   134    68    67    1
   135    87    88    2
   136    87    86    1
   137    63    65    1
   138    63    60    1
   139    62    61    2
   140   103   100    1
   141    70    67    1
   142    70    71    1
   143   120   117    1
   144    61    60    1
   145   135   134    1
   146    86    83    1
   147   188   189    2
   148    60    59    1
   149    67    66    1
   150    96    95    1
   151    95    94    1
   152    72    71    2
   153   117   116    1
   154   117   118    1
   155    71    73   am
   156   100   101    1
   157   100    99    1
   158   134   132   ar
   159   134   133   ar
   160   132   130   ar
   161   102   101    2
   162   133   131   ar
   163   101   104   am
   164   116   113   am
   165   115   112    1
   166   130   129   ar
   167    85    84    2
   168   119   118    2
   169    84    83    1
   170    84    90   am
   171    83    82    1
   172    90    91    1
   173    91    94    1
   174    91    92    1
   175   131   129   ar
   176   113   114    2
   177   113   112    1
   178   129   128    1
   179   104   105    1
   180   112   111    1
   181   128   125    1
   182    93    92    2
   183   105   106    1
   184   105   108    1
   185   109   108    1
   186   127   126    2
   187   125   126    1
   188   125   124    1
   189   107   106    2
   190   108   110    1
   191    80    79    1
   192    81    79    1
   193    79    78    1
   194    78    75    1
   195    75    74    1
   196    75    76    1
   197    76    77    2
