@<TRIPOS>MOLECULE
tmp/3cvpA00.pdb
 218 205 0 0 0
SMALL
GASTEIGER

@<TRIPOS>ATOM
      1  N         -5.4390   -4.7400    9.1660 N.3    62  GLU62      -0.1245
      2  CA        -4.6110   -5.9140    8.8460 C.3    62  GLU62       0.1567
      3  C         -3.9690   -5.8160    7.4490 C.2    62  GLU62       0.2260
      4  O         -3.7940   -6.8200    6.7680 O.2    62  GLU62      -0.2867
      5  CB        -5.4840   -7.1890    8.9800 C.3    62  GLU62       0.0388
      6  CG        -4.7700   -8.4920    9.2360 C.3    62  GLU62       0.1160
      7  CD        -3.5370   -8.3430   10.1060 C.2    62  GLU62       0.3649
      8  OE1       -3.6620   -8.0020   11.2920 O.co2  62  GLU62      -0.2457
      9  OE2       -2.4390   -8.5740    9.5910 O.co2  62  GLU62      -0.2457
     10  N         -0.6300   -4.1000    6.4590 N.3    64  ASP64      -0.1239
     11  CA         0.6070   -3.3620    6.6770 C.3    64  ASP64       0.1674
     12  C          1.2410   -2.8670    5.3800 C.2    64  ASP64       0.2266
     13  O          1.8540   -1.8160    5.3660 O.2    64  ASP64      -0.2867
     14  CB         1.6310   -4.2100    7.4370 C.3    64  ASP64       0.1410
     15  CG         1.3650   -4.2530    8.9280 C.2    64  ASP64       0.3668
     16  OD1        0.8030   -3.2760    9.4890 O.co2  64  ASP64      -0.2456
     17  OD2        1.6930   -5.2880    9.5380 O.co2  64  ASP64      -0.2456
     18  N          5.8810    0.1770   13.5290 N.3    90  VAL90      -0.1245
     19  CA         5.0230   -0.9750   13.8380 C.3    90  VAL90       0.1561
     20  C          4.8420   -1.8710   12.6070 C.2    90  VAL90       0.2260
     21  O          5.0930   -3.0760   12.6650 O.2    90  VAL90      -0.2867
     22  CB         3.6320   -0.5250   14.3820 C.3    90  VAL90       0.0252
     23  CG1        2.6560   -1.6800   14.3880 C.3    90  VAL90       0.0019
     24  CG2        3.7730    0.0600   15.8110 C.3    90  VAL90       0.0019
     25  N          8.1730   -3.5090   11.5460 N.3    93  THR93      -0.1203
     26  CA         8.4450   -4.6160   12.4590 C.3    93  THR93       0.1994
     27  C          7.5840   -5.8290   12.0900 C.2    93  THR93       0.2618
     28  O          8.0970   -6.9460   11.9840 O.2    93  THR93      -0.2717
     29  CB         8.2320   -4.1900   13.9130 C.3    93  THR93       0.1784
     30  OG1        9.1130   -3.0940   14.2030 O.3    93  THR93      -0.2211
     31  CG2        8.5370   -5.3480   14.8800 C.3    93  THR93       0.0376
     32  N          6.2870   -5.6250   11.8660 N.am   94  ASN94      -0.1960
     33  CA         5.4370   -6.7530   11.4550 C.3    94  ASN94       0.1819
     34  C          5.9640   -7.3870   10.1640 C.2    94  ASN94       0.2621
     35  O          5.9130   -8.6060    9.9830 O.2    94  ASN94      -0.2715
     36  CB         3.9770   -6.3360   11.2640 C.3    94  ASN94       0.1195
     37  CG         3.2680   -6.0110   12.5680 C.2    94  ASN94       0.2630
     38  OD1        3.6810   -6.4260   13.6590 O.2    94  ASN94      -0.2716
     39  ND2        2.1920   -5.2560   12.4570 N.am   94  ASN94      -0.0877
     40  N          6.4830   -6.5460    9.2850 N.am   95  GLU95      -0.1963
     41  CA         6.9380   -6.9720    7.9700 C.3    95  GLU95       0.1733
     42  C          8.4070   -7.4190    7.9940 C.2    95  GLU95       0.2616
     43  O          8.9580   -7.7830    6.9610 O.2    95  GLU95      -0.2715
     44  CB         6.7320   -5.8370    6.9380 C.3    95  GLU95       0.0429
     45  CG         5.2860   -5.5200    6.5990 C.3    95  GLU95       0.1163
     46  CD         4.6250   -6.5900    5.7390 C.2    95  GLU95       0.3649
     47  OE1        4.9770   -6.7200    4.5570 O.co2  95  GLU95      -0.2457
     48  OE2        3.7330   -7.2910    6.2390 O.co2  95  GLU95      -0.2457
     49  N          9.0340   -7.3940    9.1690 N.am   96  HIS96      -0.1973
     50  CA        10.4650   -7.7180    9.3190 C.3    96  HIS96       0.1656
     51  C         11.3520   -6.9210    8.3500 C.2    96  HIS96       0.2291
     52  O         12.2270   -7.4820    7.6650 O.2    96  HIS96      -0.2864
     53  CB        10.7160   -9.2250    9.1910 C.3    96  HIS96       0.0771
     54  CG         9.8530  -10.0450   10.0960 C.ar   96  HIS96       0.0820
     55  ND1        8.6900  -10.6470    9.6670 N.ar   96  HIS96      -0.2267
     56  CD2        9.9570  -10.3250   11.4130 C.ar   96  HIS96       0.1154
     57  CE1        8.1230  -11.2760   10.6800 C.ar   96  HIS96       0.1986
     58  NE2        8.8830  -11.1120   11.7470 N.ar   96  HIS96      -0.2212
     59  N          8.1270   -2.0540   20.8900 N.3   152  VAL152     -0.1245
     60  CA         8.2600   -2.3270   19.4490 C.3   152  VAL152      0.1561
     61  C          9.7000   -2.7840   19.1450 C.2   152  VAL152      0.2260
     62  O          9.9290   -3.8430   18.5490 O.2   152  VAL152     -0.2867
     63  CB         7.8560   -1.0910   18.5910 C.3   152  VAL152      0.0252
     64  CG1        8.0880   -1.3540   17.1190 C.3   152  VAL152      0.0019
     65  CG2        6.4050   -0.7110   18.8500 C.3   152  VAL152      0.0019
     66  N         10.2510   -6.3460   20.4180 N.3   155  ASN155     -0.1240
     67  CA         9.6150   -7.2680   19.4660 C.3   155  ASN155      0.1653
     68  C         10.4930   -7.5440   18.2520 C.2   155  ASN155      0.2266
     69  O         10.5550   -8.6730   17.7780 O.2   155  ASN155     -0.2867
     70  CB         8.2790   -6.7120   18.9640 C.3   155  ASN155      0.1155
     71  CG         7.1060   -7.1720   19.8010 C.2   155  ASN155      0.2627
     72  OD1        6.5060   -8.2150   19.5290 O.2   155  ASN155     -0.2716
     73  ND2        6.7650   -6.3890   20.8220 N.am  155  ASN155     -0.0877
     74  N          5.5250   -2.8410   27.5660 N.3   167  LEU167     -0.1245
     75  CA         4.1890   -2.6430   27.0430 C.3   167  LEU167      0.1561
     76  C          3.1320   -2.7940   28.1270 C.2   167  LEU167      0.2260
     77  O          2.0950   -2.1260   28.0670 O.2   167  LEU167     -0.2867
     78  CB         3.9050   -3.5960   25.8780 C.3   167  LEU167      0.0270
     79  CG         4.4320   -3.1450   24.5110 C.3   167  LEU167      0.0019
     80  CD1        4.5200   -4.3290   23.5550 C.3   167  LEU167      0.0001
     81  CD2        3.5490   -2.0350   23.9440 C.3   167  LEU167      0.0001
     82  N         -3.4640   -4.2180   22.0570 N.3   182  ASN182     -0.1225
     83  CA        -3.1150   -5.1350   20.9660 C.3   182  ASN182      0.1785
     84  C         -1.6210   -5.4090   20.8510 C.2   182  ASN182      0.2597
     85  O         -1.2100   -6.5370   20.5350 O.2   182  ASN182     -0.2718
     86  CB        -3.6190   -4.6780   19.6050 C.3   182  ASN182      0.1169
     87  CG        -3.2210   -5.6560   18.5150 C.2   182  ASN182      0.2627
     88  OD1       -3.7430   -6.7680   18.4650 O.2   182  ASN182     -0.2716
     89  ND2       -2.2400   -5.2800   17.6880 N.am  182  ASN182     -0.0877
     90  N         -0.8180   -4.3740   21.0850 N.am  183  LYS183     -0.1980
     91  CA         0.6330   -4.4910   20.9910 C.3   183  LYS183      0.1596
     92  C          1.1460   -5.4250   22.0820 C.2   183  LYS183      0.2287
     93  O          1.9470   -6.3110   21.8040 O.2   183  LYS183     -0.2864
     94  CB         1.3110   -3.1150   21.0310 C.3   183  LYS183      0.0298
     95  CG         1.3460   -2.4490   19.6680 C.3   183  LYS183      0.0038
     96  CD         1.3730   -0.9210   19.6970 C.3   183  LYS183      0.0206
     97  CE         0.9530   -0.3560   18.3150 C.3   183  LYS183      0.1093
     98  NZ         1.1190    1.1300   18.2160 N.3   183  LYS183     -0.1314
     99  N         -0.1060   -9.1570   20.9610 N.3   186  ALA186     -0.1231
    100  CA         0.8570   -9.6300   19.9280 C.3   186  ALA186      0.1694
    101  C          2.2190  -10.0520   20.5100 C.2   186  ALA186      0.2592
    102  O          2.7660  -11.1170   20.1740 O.2   186  ALA186     -0.2718
    103  CB         1.0430   -8.5490   18.8700 C.3   186  ALA186      0.0304
    104  N          2.7520   -9.2120   21.3940 N.am  187  THR187     -0.1953
    105  CA         4.0090   -9.4890   22.0750 C.3   187  THR187      0.1897
    106  C          3.9190  -10.8060   22.8470 C.2   187  THR187      0.2313
    107  O          4.7440  -11.6980   22.6590 O.2   187  THR187     -0.2863
    108  CB         4.3770   -8.3520   23.0550 C.3   187  THR187      0.1794
    109  OG1        4.5880   -7.1350   22.3260 O.3   187  THR187     -0.2208
    110  CG2        5.6530   -8.7040   23.8420 C.3   187  THR187      0.0378
    111  N          1.6760  -13.1760   22.5760 N.3   189  ALA189     -0.1231
    112  CA         1.4000  -14.2470   21.6380 C.3   189  ALA189      0.1694
    113  C          2.6630  -14.7520   20.9560 C.2   189  ALA189      0.2592
    114  O          2.9370  -15.9630   20.9530 O.2   189  ALA189     -0.2718
    115  CB         0.3700  -13.7900   20.5930 C.3   189  ALA189      0.0304
    116  N          3.4380  -13.8310   20.3870 N.am  190  ASN190     -0.1974
    117  CA         4.7010  -14.1980   19.7530 C.3   190  ASN190      0.1688
    118  C          5.7240  -14.7740   20.7400 C.2   190  ASN190      0.2292
    119  O          6.6130  -15.5010   20.3300 O.2   190  ASN190     -0.2864
    120  CB         5.3120  -13.0250   18.9760 C.3   190  ASN190      0.1181
    121  CG         4.5390  -12.6870   17.7130 C.2   190  ASN190      0.2629
    122  OD1        3.6580  -13.4440   17.2590 O.2   190  ASN190     -0.2716
    123  ND2        4.8510  -11.5260   17.1430 N.am  190  ASN190     -0.0877
    124  N          4.9800  -16.9280   23.0590 N.3   192  ASN192     -0.1240
    125  CA         4.3880  -18.2000   23.5050 C.3   192  ASN192      0.1653
    126  C          3.6030  -18.1140   24.8090 C.2   192  ASN192      0.2266
    127  O          3.6650  -19.0200   25.6380 O.2   192  ASN192     -0.2867
    128  CB         5.4580  -19.3030   23.5980 C.3   192  ASN192      0.1155
    129  CG         5.9070  -19.7860   22.2440 C.2   192  ASN192      0.2627
    130  OD1        6.9130  -19.3090   21.7050 O.2   192  ASN192     -0.2716
    131  ND2        5.1500  -20.7230   21.6650 N.am  192  ASN192     -0.0877
    132  N         -6.0440   -8.8890   24.1990 N.3   201  TYR201     -0.1241
    133  CA        -6.8650   -8.6950   22.9940 C.3   201  TYR201      0.1605
    134  C         -8.3250   -8.4050   23.3250 C.2   201  TYR201      0.2264
    135  O         -8.9840   -7.6120   22.6450 O.2   201  TYR201     -0.2867
    136  CB        -6.8270   -9.9400   22.0950 C.3   201  TYR201      0.0534
    137  CG        -5.5010  -10.2690   21.4510 C.ar  201  TYR201     -0.0201
    138  CD1       -4.6360   -9.2660   21.0130 C.ar  201  TYR201     -0.0009
    139  CD2       -5.1320  -11.5950   21.2460 C.ar  201  TYR201     -0.0009
    140  CE1       -3.4180   -9.5890   20.4070 C.ar  201  TYR201      0.0417
    141  CE2       -3.9330  -11.9240   20.6470 C.ar  201  TYR201      0.0417
    142  CZ        -3.0790  -10.9240   20.2210 C.ar  201  TYR201      0.1957
    143  OH        -1.8840  -11.2660   19.6260 O.3   201  TYR201     -0.2866
    144  N        -11.6770   -3.3300   15.4690 N.3   211  TYR211     -0.1241
    145  CA       -10.2320   -3.5400   15.3340 C.3   211  TYR211      0.1605
    146  C         -9.9640   -4.9170   14.7110 C.2   211  TYR211      0.2264
    147  O         -9.7950   -5.8990   15.4270 O.2   211  TYR211     -0.2867
    148  CB        -9.6200   -3.4650   16.7300 C.3   211  TYR211      0.0534
    149  CG        -8.1630   -3.0320   16.8390 C.ar  211  TYR211     -0.0201
    150  CD1       -7.2470   -3.2540   15.8040 C.ar  211  TYR211     -0.0009
    151  CD2       -7.6930   -2.4430   18.0200 C.ar  211  TYR211     -0.0009
    152  CE1       -5.9090   -2.8860   15.9330 C.ar  211  TYR211      0.0417
    153  CE2       -6.3520   -2.0720   18.1640 C.ar  211  TYR211      0.0417
    154  CZ        -5.4720   -2.3040   17.1140 C.ar  211  TYR211      0.1957
    155  OH        -4.1660   -1.9370   17.2430 O.3   211  TYR211     -0.2866
    156  N         -7.4290   -6.2310   13.0800 N.3   213  ARG213     -0.1245
    157  CA        -6.1360   -6.8040   13.4610 C.3   213  ARG213      0.1563
    158  C         -6.2000   -7.5930   14.7750 C.2   213  ARG213      0.2260
    159  O         -5.5560   -8.6290   14.8970 O.2   213  ARG213     -0.2867
    160  CB        -5.0630   -5.7050   13.5310 C.3   213  ARG213      0.0307
    161  CG        -3.7400   -6.1410   14.1570 C.3   213  ARG213      0.0489
    162  CD        -2.5930   -5.3700   13.5650 C.3   213  ARG213      0.2205
    163  NE        -2.2560   -5.9290   12.2560 N.pl3 213  ARG213     -0.0865
    164  CZ        -1.3830   -5.3970   11.4140 C.cat 213  ARG213      0.5346
    165  NH1       -0.7450   -4.2760   11.7390 N.pl3 213  ARG213      0.1354
    166  NH2       -1.1440   -6.0060   10.2500 N.pl3 213  ARG213      0.1354
    167  N         -8.1010  -10.7820   14.0620 N.3   216  TYR216     -0.1227
    168  CA        -7.1880  -11.7130   13.3880 C.3   216  TYR216      0.1736
    169  C         -6.2090  -12.3290   14.4060 C.2   216  TYR216      0.2595
    170  O         -6.0670  -13.5520   14.4730 O.2   216  TYR216     -0.2718
    171  CB        -6.4420  -11.0300   12.2250 C.3   216  TYR216      0.0548
    172  CG        -5.3320  -11.8960   11.6690 C.ar  216  TYR216     -0.0200
    173  CD1       -5.6200  -12.9820   10.8520 C.ar  216  TYR216     -0.0009
    174  CD2       -3.9980  -11.6550   12.0000 C.ar  216  TYR216     -0.0009
    175  CE1       -4.6110  -13.8150   10.3750 C.ar  216  TYR216      0.0417
    176  CE2       -2.9800  -12.4780   11.5100 C.ar  216  TYR216      0.0417
    177  CZ        -3.3040  -13.5550   10.7090 C.ar  216  TYR216      0.1957
    178  OH        -2.3150  -14.3750   10.2310 O.3   216  TYR216     -0.2866
    179  N         -5.5640  -11.4740   15.2030 N.am  217  ASN217     -0.1974
    180  CA        -4.6200  -11.9010   16.2540 C.3   217  ASN217      0.1688
    181  C         -5.2470  -12.9300   17.2300 C.2   217  ASN217      0.2292
    182  O         -4.5740  -13.8700   17.6650 O.2   217  ASN217     -0.2864
    183  CB        -4.1100  -10.6930   17.0500 C.3   217  ASN217      0.1181
    184  CG        -2.9010   -9.9930   16.4070 C.2   217  ASN217      0.2629
    185  OD1       -2.1370  -10.5770   15.6410 O.2   217  ASN217     -0.2716
    186  ND2       -2.7160   -8.7320   16.7590 N.am  217  ASN217     -0.0877
    187  N         -5.4180  -16.1940   15.6160 N.3   220  VAL220     -0.1245
    188  CA        -4.0650  -16.7500   15.6340 C.3   220  VAL220      0.1561
    189  C         -3.7690  -17.4280   16.9620 C.2   220  VAL220      0.2260
    190  O         -3.3050  -18.5660   16.9820 O.2   220  VAL220     -0.2867
    191  CB        -2.9790  -15.6780   15.3410 C.3   220  VAL220      0.0252
    192  CG1       -1.5910  -16.1570   15.7970 C.3   220  VAL220      0.0019
    193  CG2       -2.9550  -15.3440   13.8550 C.3   220  VAL220      0.0019
    194  N         -5.8440  -20.5390   17.4920 N.3   223  SER223     -0.1202
    195  CA        -5.2870  -21.5690   16.6230 C.3   223  SER223      0.2020
    196  C         -4.0050  -22.1560   17.2270 C.2   223  SER223      0.2618
    197  O         -3.8190  -23.3810   17.2460 O.2   223  SER223     -0.2717
    198  CB        -5.0480  -21.0180   15.2090 C.3   223  SER223      0.2103
    199  OG        -4.6080  -22.0540   14.3510 O.3   223  SER223     -0.2182
    200  N         -3.1480  -21.2790   17.7460 N.am  224  ASN224     -0.1974
    201  CA        -1.9460  -21.6910   18.4620 C.3   224  ASN224      0.1688
    202  C         -2.2210  -22.6040   19.6580 C.2   224  ASN224      0.2292
    203  O         -1.4570  -23.5150   19.9030 O.2   224  ASN224     -0.2864
    204  CB        -1.0960  -20.4750   18.8640 C.3   224  ASN224      0.1181
    205  CG        -0.4520  -19.8030   17.6630 C.2   224  ASN224      0.2629
    206  OD1       -0.4210  -20.3770   16.5710 O.2   224  ASN224     -0.2716
    207  ND2        0.0610  -18.5900   17.8480 N.am  224  ASN224     -0.0877
    208  N         -6.2400  -19.4760    5.5680 N.3   250  PHE250     -0.1241
    209  CA        -6.0530  -19.7930    6.9960 C.3   250  PHE250      0.1605
    210  C         -7.3440  -20.4530    7.5320 C.2   250  PHE250      0.2264
    211  O         -7.3120  -21.5120    8.1720 O.2   250  PHE250     -0.2867
    212  CB        -5.6480  -18.4950    7.7350 C.3   250  PHE250      0.0534
    213  CG        -5.5530  -18.6060    9.2600 C.ar  250  PHE250     -0.0203
    214  CD1       -5.2990  -19.8150    9.9030 C.ar  250  PHE250     -0.0042
    215  CD2       -5.6730  -17.4520   10.0430 C.ar  250  PHE250     -0.0042
    216  CE1       -5.2030  -19.8810   11.3130 C.ar  250  PHE250     -0.0003
    217  CE2       -5.5690  -17.5090   11.4390 C.ar  250  PHE250     -0.0003
    218  CZ        -5.3420  -18.7230   12.0740 C.ar  250  PHE250     -0.0000
@<TRIPOS>BOND
     1    47    46   ar
     2    13    12    2
     3    12    11    1
     4   208   209    1
     5    46    48   ar
     6    46    45    1
     7    10    11    1
     8    45    44    1
     9    11    14    1
    10     4     3    2
    11    44    41    1
    12    43    42    2
    13   209   210    1
    14   209   212    1
    15    14    15    1
    16     3     2    1
    17   210   211    2
    18    52    51    2
    19   212   213    1
    20    41    42    1
    21    41    40    1
    22    42    49   am
    23    51    50    1
    24     2     5    1
    25     2     1    1
    26    15    16   ar
    27    15    17   ar
    28     5     6    1
    29    49    50    1
    30    53    50    1
    31    53    54    1
    32     6     7    1
    33   213   214   ar
    34   213   215   ar
    35    40    34   am
    36     9     7   ar
    37    55    54   ar
    38    55    57   ar
    39   214   216   ar
    40    35    34    2
    41   215   217   ar
    42    54    56   ar
    43     7     8   ar
    44    34    33    1
    45   178   177    1
    46   166   164    1
    47   175   177   ar
    48   175   173   ar
    49    57    58   ar
    50   177   176   ar
    51   173   172   ar
    52    36    33    1
    53    36    37    1
    54   216   218   ar
    55    56    58   ar
    56   164   165    1
    57   164   163    2
    58   217   218   ar
    59    33    32    1
    60   176   174   ar
    61    25    26    1
    62   172   174   ar
    63   172   171    1
    64    32    27   am
    65    28    27    2
    66    27    26    1
    67   171   168    1
    68   163   162    1
    69    39    37   am
    70    26    29    1
    71    37    38    2
    72    20    21    2
    73    20    19    1
    74   156   157    1
    75   168   167    1
    76   168   169    1
    77   157   160    1
    78   157   158    1
    79    18    19    1
    80   160   161    1
    81   162   161    1
    82    19    22    1
    83   193   191    1
    84    29    30    1
    85    29    31    1
    86   199   198    1
    87    22    23    1
    88    22    24    1
    89   169   170    2
    90   169   179   am
    91   146   145    1
    92   146   147    2
    93   158   159    2
    94   179   180    1
    95   198   195    1
    96   145   144    1
    97   145   148    1
    98   191   188    1
    99   191   192    1
   100   187   188    1
   101   188   189    1
   102   185   184    2
   103   150   152   ar
   104   150   149   ar
   105   152   154   ar
   106   180   183    1
   107   180   181    1
   108   184   186   am
   109   184   183    1
   110   206   205    2
   111   195   196    1
   112   195   194    1
   113   148   149    1
   114   149   151   ar
   115   189   190    2
   116   154   155    1
   117   154   153   ar
   118    64    63    1
   119   123   121   am
   120   196   197    2
   121   196   200   am
   122   181   182    2
   123   122   121    2
   124   205   207   am
   125   205   204    1
   126    89    87   am
   127   121   120    1
   128   200   201    1
   129    69    68    2
   130   151   153   ar
   131    98    97    1
   132    68    67    1
   133    97    96    1
   134   201   204    1
   135   201   202    1
   136    88    87    2
   137    87    86    1
   138    62    61    2
   139    63    65    1
   140    63    60    1
   141   103   100    1
   142    70    67    1
   143    70    71    1
   144   120   117    1
   145    61    60    1
   146    60    59    1
   147    67    66    1
   148    72    71    2
   149    86    83    1
   150   143   142    1
   151   202   203    2
   152    95    96    1
   153    95    94    1
   154   117   116    1
   155   117   118    1
   156    71    73   am
   157   100   101    1
   158   100    99    1
   159   102   101    2
   160   142   140   ar
   161   142   141   ar
   162   119   118    2
   163   116   113   am
   164   140   138   ar
   165   101   104   am
   166    85    84    2
   167   115   112    1
   168   141   139   ar
   169    84    83    1
   170    84    90   am
   171   114   113    2
   172   113   112    1
   173    83    82    1
   174    91    94    1
   175    91    90    1
   176    91    92    1
   177   138   137   ar
   178   139   137   ar
   179   104   105    1
   180   137   136    1
   181   112   111    1
   182   131   129   am
   183   130   129    2
   184    93    92    2
   185   105   106    1
   186   105   108    1
   187   136   133    1
   188   129   128    1
   189   109   108    1
   190   135   134    2
   191   107   106    2
   192   133   134    1
   193   133   132    1
   194   108   110    1
   195   124   125    1
   196   125   128    1
   197   125   126    1
   198    80    79    1
   199    81    79    1
   200    79    78    1
   201   126   127    2
   202    78    75    1
   203    75    74    1
   204    75    76    1
   205    77    76    2
