@<TRIPOS>MOLECULE
tmp/3cvvC01.pdb
 232 229 0 0 0
SMALL
GASTEIGER

@<TRIPOS>ATOM
      1  N         71.4780  -16.1040    0.6260 N.3    25  TRP25      -0.1227
      2  CA        72.9160  -16.0770    0.6880 C.3    25  TRP25       0.1737
      3  C         73.3790  -14.7530    1.2910 C.2    25  TRP25       0.2595
      4  O         73.2390  -13.7110    0.6660 O.2    25  TRP25      -0.2718
      5  CB        73.4790  -16.2920   -0.7260 C.3    25  TRP25       0.0564
      6  CG        74.9480  -16.2850   -0.8170 C.ar   25  TRP25       0.0003
      7  CD1       75.8360  -16.5170    0.1890 C.ar   25  TRP25       0.0946
      8  CD2       75.7300  -16.0630   -1.9990 C.ar   25  TRP25       0.0152
      9  NE1       77.1160  -16.4330   -0.2830 N.ar   25  TRP25      -0.2442
     10  CE2       77.0840  -16.1620   -1.6230 C.ar   25  TRP25       0.0810
     11  CE3       75.4180  -15.7700   -3.3300 C.ar   25  TRP25       0.0012
     12  CZ2       78.1290  -15.9780   -2.5320 C.ar   25  TRP25       0.0191
     13  CZ3       76.4610  -15.6120   -4.2380 C.ar   25  TRP25       0.0001
     14  CH2       77.7950  -15.7130   -3.8330 C.ar   25  TRP25       0.0015
     15  N         73.9020  -14.8230    2.5150 N.am   26  PHE26      -0.1962
     16  CA        74.4940  -13.6730    3.2150 C.3    26  PHE26       0.1771
     17  C         75.9280  -13.4360    2.7250 C.2    26  PHE26       0.2619
     18  O         76.7100  -14.3740    2.6380 O.2    26  PHE26      -0.2715
     19  CB        74.5800  -13.9250    4.7300 C.3    26  PHE26       0.0574
     20  CG        73.2600  -13.9750    5.4450 C.ar   26  PHE26      -0.0200
     21  CD1       72.5880  -12.8150    5.7630 C.ar   26  PHE26      -0.0042
     22  CD2       72.7090  -15.1900    5.8280 C.ar   26  PHE26      -0.0042
     23  CE1       71.3820  -12.8470    6.4430 C.ar   26  PHE26      -0.0003
     24  CE2       71.5020  -15.2420    6.4930 C.ar   26  PHE26      -0.0003
     25  CZ        70.8350  -14.0530    6.8120 C.ar   26  PHE26      -0.0000
     26  N         76.2820  -12.1880    2.4410 N.am   27  ARG27      -0.1963
     27  CA        77.6880  -11.8230    2.1650 C.3    27  ARG27       0.1729
     28  C         77.9370  -10.5340    2.9530 C.2    27  ARG27       0.2616
     29  O         78.6910  -10.5300    3.9370 O.2    27  ARG27      -0.2715
     30  CB        77.9700  -11.6400    0.6650 C.3    27  ARG27       0.0348
     31  CG        77.4500  -12.7460   -0.2600 C.3    27  ARG27       0.0492
     32  CD        76.0040  -12.5210   -0.6940 C.3    27  ARG27       0.2205
     33  NE        75.9080  -11.3250   -1.5260 N.pl3  27  ARG27      -0.0865
     34  CZ        76.2460  -11.2820   -2.8080 C.cat  27  ARG27       0.5346
     35  NH1       76.6540  -12.3740   -3.4370 N.pl3  27  ARG27       0.1354
     36  NH2       76.1490  -10.1400   -3.4640 N.pl3  27  ARG27       0.1354
     37  N         77.2940   -9.4500    2.5140 N.am   28  LYS28      -0.1977
     38  CA        76.9600   -8.3510    3.4110 C.3    28  LYS28       0.1596
     39  C         75.5070   -8.6170    3.8260 C.2    28  LYS28       0.2287
     40  O         75.0500   -9.7760    3.8110 O.2    28  LYS28      -0.2864
     41  CB        77.1460   -6.9770    2.7250 C.3    28  LYS28       0.0298
     42  CG        78.5640   -6.7480    2.1610 C.3    28  LYS28       0.0038
     43  CD        78.6620   -5.4350    1.3970 C.3    28  LYS28       0.0206
     44  CE        80.0170   -5.2240    0.7920 C.3    28  LYS28       0.1093
     45  NZ        80.1430   -3.8740    0.1440 N.3    28  LYS28      -0.1314
     46  N         75.9680  -18.4990    4.8180 N.3    58  PHE58      -0.1227
     47  CA        77.1190  -17.6420    4.6150 C.3    58  PHE58       0.1736
     48  C         78.2390  -18.5600    4.1240 C.2    58  PHE58       0.2595
     49  O         78.5110  -19.5990    4.7190 O.2    58  PHE58      -0.2718
     50  CB        77.5240  -16.9340    5.9060 C.3    58  PHE58       0.0547
     51  CG        78.6870  -15.9730    5.7430 C.ar   58  PHE58      -0.0202
     52  CD1       78.4710  -14.6550    5.3370 C.ar   58  PHE58      -0.0042
     53  CD2       79.9840  -16.3750    6.0220 C.ar   58  PHE58      -0.0042
     54  CE1       79.5210  -13.7650    5.1940 C.ar   58  PHE58      -0.0003
     55  CE2       81.0590  -15.4760    5.8810 C.ar   58  PHE58      -0.0003
     56  CZ        80.8230  -14.1820    5.4790 C.ar   58  PHE58      -0.0000
     57  N         78.8680  -18.1810    3.0210 N.am   59  ILE59      -0.1966
     58  CA        79.9550  -18.9570    2.4680 C.3    59  ILE59       0.1727
     59  C         81.2820  -18.3360    2.8980 C.2    59  ILE59       0.2616
     60  O         81.6320  -17.2400    2.4560 O.2    59  ILE59      -0.2715
     61  CB        79.8730  -19.0150    0.9410 C.3    59  ILE59       0.0290
     62  CG1       78.5430  -19.6520    0.5150 C.3    59  ILE59       0.0022
     63  CG2       81.0870  -19.7760    0.3900 C.3    59  ILE59       0.0023
     64  CD1       78.3420  -19.7610   -0.9910 C.3    59  ILE59       0.0001
     65  N         82.0030  -19.0390    3.7720 N.am   60  LEU60      -0.1963
     66  CA        83.2900  -18.5890    4.2500 C.3    60  LEU60       0.1728
     67  C         84.2810  -18.9480    3.1470 C.2    60  LEU60       0.2616
     68  O         84.6620  -20.1150    2.9760 O.2    60  LEU60      -0.2715
     69  CB        83.6250  -19.2600    5.5720 C.3    60  LEU60       0.0311
     70  CG        84.8080  -18.7310    6.3800 C.3    60  LEU60       0.0022
     71  CD1       84.5540  -17.3440    6.9150 C.3    60  LEU60       0.0001
     72  CD2       85.1090  -19.7180    7.5360 C.3    60  LEU60       0.0001
     73  N         84.6800  -17.9090    2.4230 N.am   61  ASP61      -0.1971
     74  CA        85.2200  -17.9810    1.0820 C.3    61  ASP61       0.1709
     75  C         86.7140  -17.6870    1.1270 C.2    61  ASP61       0.2293
     76  O         87.1160  -16.5510    1.3490 O.2    61  ASP61      -0.2864
     77  CB        84.4940  -16.9320    0.2210 C.3    61  ASP61       0.1436
     78  CG        85.0140  -16.8370   -1.2010 C.2    61  ASP61       0.3671
     79  OD1       85.8970  -17.6280   -1.6030 O.co2  61  ASP61      -0.2456
     80  OD2       84.5010  -15.9540   -1.9350 O.co2  61  ASP61      -0.2456
     81  N         88.4560  -14.5370   -0.7340 N.3    64  ILE64      -0.1245
     82  CA        88.4960  -13.2010   -0.1380 C.3    64  ILE64       0.1561
     83  C         89.9210  -12.7720    0.1890 C.2    64  ILE64       0.2260
     84  O         90.2710  -11.6000    0.0380 O.2    64  ILE64      -0.2867
     85  CB        87.6240  -13.1550    1.1760 C.3    64  ILE64       0.0252
     86  CG1       86.1340  -13.1330    0.8330 C.3    64  ILE64       0.0019
     87  CG2       87.9660  -11.9590    2.0390 C.3    64  ILE64       0.0019
     88  CD1       85.6370  -11.7980    0.2430 C.3    64  ILE64       0.0001
     89  N         92.1450  -11.1950   -2.3790 N.3    67  TRP67      -0.1227
     90  CA        91.7490   -9.8420   -2.7370 C.3    67  TRP67       0.1737
     91  C         91.9650   -8.7890   -1.6500 C.2    67  TRP67       0.2595
     92  O         92.3000   -7.6350   -1.9440 O.2    67  TRP67      -0.2718
     93  CB        90.2680   -9.8640   -3.0740 C.3    67  TRP67       0.0564
     94  CG        89.7660   -8.5900   -3.6320 C.ar   67  TRP67       0.0003
     95  CD1       90.2990   -7.8860   -4.6650 C.ar   67  TRP67       0.0946
     96  CD2       88.5940   -7.8790   -3.2170 C.ar   67  TRP67       0.0152
     97  NE1       89.5380   -6.7710   -4.9150 N.ar   67  TRP67      -0.2442
     98  CE2       88.4880   -6.7420   -4.0380 C.ar   67  TRP67       0.0810
     99  CE3       87.6320   -8.0910   -2.2260 C.ar   67  TRP67       0.0012
    100  CZ2       87.4600   -5.8170   -3.9040 C.ar   67  TRP67       0.0191
    101  CZ3       86.6140   -7.1700   -2.0890 C.ar   67  TRP67       0.0001
    102  CH2       86.5370   -6.0480   -2.9290 C.ar   67  TRP67       0.0015
    103  N         91.7570   -9.1980   -0.4050 N.am   68  MET68      -0.1979
    104  CA        91.5920   -8.2920    0.7120 C.3    68  MET68       0.1605
    105  C         92.5160   -8.7560    1.8420 C.2    68  MET68       0.2287
    106  O         92.5560   -9.9390    2.1450 O.2    68  MET68      -0.2864
    107  CB        90.1310   -8.4220    1.1590 C.3    68  MET68       0.0413
    108  CG        89.5070   -7.2290    1.8340 C.3    68  MET68       0.0598
    109  SD        87.9940   -7.7240    2.6740 S.3    68  MET68      -0.1393
    110  CE        87.0080   -8.2750    1.2850 C.3    68  MET68       0.0692
    111  N         92.8230   -8.7770    5.7860 N.3    70  VAL70      -0.1245
    112  CA        91.8740   -8.7340    6.8990 C.3    70  VAL70       0.1561
    113  C         92.6500   -8.9460    8.2050 C.2    70  VAL70       0.2260
    114  O         93.2560   -9.9970    8.3980 O.2    70  VAL70      -0.2867
    115  CB        90.7720   -9.8230    6.7280 C.3    70  VAL70       0.0252
    116  CG1       89.6850   -9.6750    7.7910 C.3    70  VAL70       0.0019
    117  CG2       90.1540   -9.7780    5.3030 C.3    70  VAL70       0.0019
    118  N         89.1370   -7.3750   12.7180 N.3    74  ARG74      -0.1231
    119  CA        87.9860   -7.5280   11.8220 C.3    74  ARG74       0.1694
    120  C         87.5160   -8.9880   11.6950 C.2    74  ARG74       0.2592
    121  O         86.3230   -9.2260   11.6050 O.2    74  ARG74      -0.2718
    122  CB        88.2340   -6.9090   10.4530 C.3    74  ARG74       0.0321
    123  CG        86.9720   -6.9310    9.5700 C.3    74  ARG74       0.0489
    124  CD        86.9480   -5.8450    8.5220 C.3    74  ARG74       0.2205
    125  NE        87.6100   -6.2020    7.2650 N.pl3  74  ARG74      -0.0865
    126  CZ        88.9010   -6.0160    7.0000 C.cat  74  ARG74       0.5346
    127  NH1       89.7400   -5.5010    7.8880 N.pl3  74  ARG74       0.1354
    128  NH2       89.3690   -6.3780    5.8310 N.pl3  74  ARG74       0.1354
    129  N         88.4330   -9.9550   11.7070 N.am   75  TRP75      -0.1976
    130  CA        88.0440  -11.3760   11.8160 C.3    75  TRP75       0.1640
    131  C         87.2110  -11.6540   13.0360 C.2    75  TRP75       0.2290
    132  O         86.2220  -12.3820   12.9560 O.2    75  TRP75      -0.2864
    133  CB        89.2550  -12.3140   11.8460 C.3    75  TRP75       0.0576
    134  CG        89.8390  -12.5330   10.5120 C.ar   75  TRP75       0.0006
    135  CD1       91.1030  -12.2450   10.1240 C.ar   75  TRP75       0.0946
    136  CD2       89.1800  -13.0900    9.3720 C.ar   75  TRP75       0.0152
    137  NE1       91.2760  -12.5690    8.8140 N.ar   75  TRP75      -0.2442
    138  CE2       90.1080  -13.0910    8.3240 C.ar   75  TRP75       0.0810
    139  CE3       87.8890  -13.5760    9.1340 C.ar   75  TRP75       0.0012
    140  CZ2       89.7960  -13.5670    7.0580 C.ar   75  TRP75       0.0191
    141  CZ3       87.5740  -14.0470    7.8820 C.ar   75  TRP75       0.0001
    142  CH2       88.5190  -14.0310    6.8490 C.ar   75  TRP75       0.0015
    143  N         83.7330  -10.2900   12.5010 N.3    78  LEU78      -0.1245
    144  CA        82.9610  -11.1920   11.6690 C.3    78  LEU78       0.1561
    145  C         82.5120  -12.4390   12.4360 C.2    78  LEU78       0.2260
    146  O         81.3730  -12.8840   12.2870 O.2    78  LEU78      -0.2867
    147  CB        83.7600  -11.6130   10.4420 C.3    78  LEU78       0.0270
    148  CG        83.0180  -12.5470    9.4780 C.3    78  LEU78       0.0019
    149  CD1       81.6940  -11.9090    9.0310 C.3    78  LEU78       0.0001
    150  CD2       83.8670  -12.9050    8.2940 C.3    78  LEU78       0.0001
    151  N         82.5160  -20.0230   -3.4900 N.3   103  PRO103     -0.2116
    152  CA        81.2020  -20.0490   -4.1190 C.3   103  PRO103      0.1372
    153  C         81.1290  -20.8530   -5.4060 C.2   103  PRO103      0.2244
    154  O         80.2150  -21.6590   -5.5520 O.2   103  PRO103     -0.2868
    155  CB        80.9240  -18.5700   -4.3870 C.3   103  PRO103      0.0268
    156  CG        81.5830  -17.8800   -3.2480 C.3   103  PRO103      0.0207
    157  CD        82.8590  -18.6610   -3.0290 C.3   103  PRO103      0.0892
    158  N         75.7500   -6.1420   -4.4640 N.3   124  ASP124     -0.1239
    159  CA        76.9150   -5.3470   -4.1020 C.3   124  ASP124      0.1674
    160  C         77.6800   -4.9800   -5.3840 C.2   124  ASP124      0.2266
    161  O         77.6280   -5.7060   -6.3810 O.2   124  ASP124     -0.2867
    162  CB        77.8060   -6.1290   -3.1460 C.3   124  ASP124      0.1410
    163  CG        78.9130   -5.2850   -2.5400 C.2   124  ASP124      0.3668
    164  OD1       78.6670   -4.1090   -2.1600 O.co2 124  ASP124     -0.2456
    165  OD2       80.0340   -5.8150   -2.4320 O.co2 124  ASP124     -0.2456
    166  N         81.1150   -4.1350   -5.6060 N.3   126  GLU126     -0.1245
    167  CA        82.5730   -4.3070   -5.5640 C.3   126  GLU126      0.1567
    168  C         82.9820   -5.2700   -6.6800 C.2   126  GLU126      0.2260
    169  O         82.2070   -6.1550   -7.0370 O.2   126  GLU126     -0.2867
    170  CB        83.0250   -4.8530   -4.2100 C.3   126  GLU126      0.0388
    171  CG        82.6120   -3.9800   -3.0620 C.3   126  GLU126      0.1160
    172  CD        83.0390   -4.4850   -1.7100 C.2   126  GLU126      0.3649
    173  OE1       83.6670   -5.5650   -1.6070 O.co2 126  GLU126     -0.2457
    174  OE2       82.7480   -3.7650   -0.7350 O.co2 126  GLU126     -0.2457
    175  N         85.0300   -7.7900   -6.6980 N.3   128  TYR128     -0.1227
    176  CA        84.9590   -9.1620   -6.2350 C.3   128  TYR128      0.1736
    177  C         83.5380   -9.6760   -6.3930 C.2   128  TYR128      0.2596
    178  O         83.3080  -10.7310   -6.9900 O.2   128  TYR128     -0.2718
    179  CB        85.4030   -9.2630   -4.7730 C.3   128  TYR128      0.0548
    180  CG        85.6050  -10.6720   -4.2940 C.ar  128  TYR128     -0.0200
    181  CD1       86.8290  -11.2940   -4.4400 C.ar  128  TYR128     -0.0009
    182  CD2       84.5660  -11.3900   -3.7000 C.ar  128  TYR128     -0.0009
    183  CE1       87.0340  -12.5750   -3.9990 C.ar  128  TYR128      0.0417
    184  CE2       84.7540  -12.6860   -3.2580 C.ar  128  TYR128      0.0417
    185  CZ        85.9890  -13.2790   -3.4150 C.ar  128  TYR128      0.1957
    186  OH        86.2120  -14.5660   -2.9840 O.3   128  TYR128     -0.2866
    187  N         82.5900   -8.9040   -5.8840 N.am  129  SER129     -0.1952
    188  CA        81.1970   -9.2880   -5.8970 C.3   129  SER129      0.1924
    189  C         80.6350   -9.3830   -7.3150 C.2   129  SER129      0.2314
    190  O         79.8390  -10.2790   -7.6100 O.2   129  SER129     -0.2863
    191  CB        80.3580   -8.2990   -5.0880 C.3   129  SER129      0.2116
    192  OG        79.0550   -8.8280   -4.9160 O.3   129  SER129     -0.2180
    193  N         82.0070  -12.6760   -8.8660 N.3   132  ARG132     -0.1245
    194  CA        81.4130  -13.7810   -8.1180 C.3   132  ARG132      0.1563
    195  C         79.9550  -14.0130   -8.4780 C.2   132  ARG132      0.2260
    196  O         79.5720  -15.1190   -8.8400 O.2   132  ARG132     -0.2867
    197  CB        81.5330  -13.4920   -6.6330 C.3   132  ARG132      0.0307
    198  CG        80.8510  -14.4840   -5.7330 C.3   132  ARG132      0.0489
    199  CD        80.9360  -14.0010   -4.3080 C.3   132  ARG132      0.2205
    200  NE        80.2030  -12.7540   -4.0990 N.pl3 132  ARG132     -0.0865
    201  CZ        80.2910  -12.0040   -3.0090 C.cat 132  ARG132      0.5346
    202  NH1       81.0780  -12.3590   -2.0150 N.pl3 132  ARG132      0.1354
    203  NH2       79.6000  -10.8770   -2.9210 N.pl3 132  ARG132      0.1354
    204  N         79.1160   -1.3230    7.4250 N.3   280  LYS280     -0.1231
    205  CA        80.0010   -1.9990    6.4770 C.3   280  LYS280      0.1693
    206  C         79.6260   -3.4670    6.2940 C.2   280  LYS280      0.2592
    207  O         79.5990   -3.9510    5.1660 O.2   280  LYS280     -0.2718
    208  CB        81.4670   -1.8440    6.8900 C.3   280  LYS280      0.0285
    209  CG        82.4560   -2.7740    6.1910 C.3   280  LYS280      0.0035
    210  CD        82.6800   -4.0690    6.9740 C.3   280  LYS280      0.0206
    211  CE        83.9700   -4.7520    6.5750 C.3   280  LYS280      0.1093
    212  NZ        83.9700   -5.1470    5.1690 N.3   280  LYS280     -0.1314
    213  N         79.3640   -4.1760    7.3890 N.am  281  PHE281     -0.1976
    214  CA        79.0120   -5.6040    7.3060 C.3   281  PHE281      0.1639
    215  C         77.5300   -5.8480    7.0360 C.2   281  PHE281      0.2290
    216  O         77.1300   -6.9770    6.7290 O.2   281  PHE281     -0.2864
    217  CB        79.4070   -6.3310    8.5870 C.3   281  PHE281      0.0560
    218  CG        80.8320   -6.8350    8.6040 C.ar  281  PHE281     -0.0200
    219  CD1       81.7600   -6.3000    9.4790 C.ar  281  PHE281     -0.0042
    220  CD2       81.2170   -7.8930    7.7960 C.ar  281  PHE281     -0.0042
    221  CE1       83.0650   -6.7910    9.5340 C.ar  281  PHE281     -0.0003
    222  CE2       82.5140   -8.3890    7.8390 C.ar  281  PHE281     -0.0003
    223  CZ        83.4380   -7.8360    8.7190 C.ar  281  PHE281     -0.0000
    224  N         86.4270   -1.4710    7.2420 N.3   412  GLN412     -0.1245
    225  CA        87.0320   -1.5870    5.9130 C.3   412  GLN412      0.1566
    226  C         85.9830   -1.7450    4.8280 C.2   412  GLN412      0.2260
    227  O         85.2760   -2.7450    4.7700 O.2   412  GLN412     -0.2867
    228  CB        87.9880   -2.7840    5.8600 C.3   412  GLN412      0.0367
    229  CG        88.7680   -2.9120    4.5360 C.3   412  GLN412      0.0905
    230  CD        88.0490   -3.6530    3.4310 C.2   412  GLN412      0.2608
    231  OE1       88.1120   -3.2440    2.2650 O.2   412  GLN412     -0.2717
    232  NE2       87.3810   -4.7460    3.7720 N.am  412  GLN412     -0.0878
@<TRIPOS>BOND
     1   193   194    1
     2   196   195    2
     3   195   194    1
     4   194   197    1
     5   190   189    2
     6   189   188    1
     7   169   168    2
     8   178   177    2
     9   175   176    1
    10   168   167    1
    11   197   198    1
    12   177   176    1
    13   177   187   am
    14   161   160    2
    15   176   179    1
    16   188   187    1
    17   188   191    1
    18   198   199    1
    19   166   167    1
    20   167   170    1
    21   154   153    2
    22   153   152    1
    23   160   159    1
    24   191   192    1
    25    97    95   ar
    26    97    98   ar
    27   179   180    1
    28    95    94   ar
    29   158   159    1
    30   181   180   ar
    31   181   183   ar
    32   155   152    1
    33   155   156    1
    34   199   200    1
    35   180   182   ar
    36    13    14   ar
    37    13    11   ar
    38   170   171    1
    39   152   151    1
    40   159   162    1
    41   200   201    2
    42    98   100   ar
    43    98    96   ar
    44   183   185   ar
    45   100   102   ar
    46    14    12   ar
    47   182   184   ar
    48    94    96   ar
    49    94    93    1
    50   151   157    1
    51    36    34    1
    52    35    34    1
    53   185   184   ar
    54   185   186    1
    55    11     8   ar
    56   156   157    1
    57    96    99   ar
    58   162   163    1
    59    93    90    1
    60   171   172    1
    61   201   203    1
    62   201   202    1
    63   102   101   ar
    64    34    33    2
    65    90    89    1
    66    90    91    1
    67   163   165   ar
    68   163   164   ar
    69    12    10   ar
    70    99   101   ar
    71     8    10   ar
    72     8     6   ar
    73    92    91    2
    74    80    78   ar
    75   172   173   ar
    76   172   174   ar
    77    91   103   am
    78    10     9   ar
    79    79    78   ar
    80    33    32    1
    81    78    77    1
    82    64    62    1
    83     6     5    1
    84     6     7   ar
    85    81    82    1
    86     5     2    1
    87    32    31    1
    88   103   104    1
    89     9     7   ar
    90    31    30    1
    91    82    83    1
    92    82    85    1
    93    84    83    2
    94    45    44    1
    95    77    74    1
    96    88    86    1
    97    63    61    1
    98    62    61    1
    99     1     2    1
   100    30    27    1
   101     4     3    2
   102     2     3    1
   103   104   107    1
   104   104   105    1
   105    44    43    1
   106    86    85    1
   107    61    58    1
   108    74    75    1
   109    74    73    1
   110    75    76    2
   111   107   108    1
   112    85    87    1
   113   110   109    1
   114     3    15   am
   115    43    42    1
   116   108   109    1
   117   105   106    2
   118    42    41    1
   119    27    26    1
   120    27    28    1
   121   231   230    2
   122    73    67   am
   123    26    17   am
   124    60    59    2
   125    58    59    1
   126    58    57    1
   127    37    28   am
   128    37    38    1
   129    15    16    1
   130    18    17    2
   131    17    16    1
   132    41    38    1
   133    59    65   am
   134    28    29    2
   135    68    67    2
   136    57    48   am
   137    67    66    1
   138    16    19    1
   139    38    39    1
   140   230   232   am
   141   230   229    1
   142    65    66    1
   143    40    39    2
   144    48    47    1
   145    48    49    2
   146    66    69    1
   147   229   228    1
   148    47    46    1
   149    47    50    1
   150    19    20    1
   151   227   226    2
   152   226   225    1
   153   207   206    2
   154   212   211    1
   155    54    52   ar
   156    54    56   ar
   157   117   115    1
   158    52    51   ar
   159    20    21   ar
   160    20    22   ar
   161    56    55   ar
   162    69    70    1
   163    51    50    1
   164    51    53   ar
   165    21    23   ar
   166   111   112    1
   167    22    24   ar
   168   128   126    1
   169   228   225    1
   170    55    53   ar
   171   225   224    1
   172   209   208    1
   173   209   210    1
   174   206   205    1
   175   206   213   am
   176    70    71    1
   177    70    72    1
   178    23    25   ar
   179   205   208    1
   180   205   204    1
   181    24    25   ar
   182   211   210    1
   183   115   112    1
   184   115   116    1
   185   216   215    2
   186   142   140   ar
   187   142   141   ar
   188   112   113    1
   189   126   125    2
   190   126   127    1
   191   215   214    1
   192   140   138   ar
   193   125   124    1
   194   214   213    1
   195   214   217    1
   196   220   222   ar
   197   220   218   ar
   198   222   223   ar
   199   141   139   ar
   200   113   114    2
   201   150   148    1
   202   138   137   ar
   203   138   136   ar
   204   124   123    1
   205   217   218    1
   206   218   219   ar
   207   223   221   ar
   208   137   135   ar
   209   149   148    1
   210   139   136   ar
   211   136   134   ar
   212   148   147    1
   213   219   221   ar
   214   123   122    1
   215   135   134   ar
   216   147   144    1
   217   122   119    1
   218   134   133    1
   219   121   120    2
   220   144   145    1
   221   144   143    1
   222   120   129   am
   223   120   119    1
   224   129   130    1
   225   130   133    1
   226   130   131    1
   227   119   118    1
   228   146   145    2
   229   132   131    2
