@<TRIPOS>MOLECULE
tmp/3cw8A00.pdb
 210 202 0 0 0
SMALL
GASTEIGER

@<TRIPOS>ATOM
      1  N         -0.5470   44.1860   -5.1410 N.3   160  TYR160     -0.1227
      2  CA        -1.4130   44.3730   -6.3080 C.3   160  TYR160      0.1736
      3  C         -0.7540   45.1180   -7.4380 C.2   160  TYR160      0.2596
      4  O          0.0150   46.0340   -7.2280 O.2   160  TYR160     -0.2718
      5  CB        -2.7550   44.9820   -5.9140 C.3   160  TYR160      0.0548
      6  CG        -3.5720   43.9780   -5.1380 C.ar  160  TYR160     -0.0200
      7  CD1       -3.2390   43.6590   -3.8080 C.ar  160  TYR160     -0.0009
      8  CD2       -4.6330   43.2950   -5.7420 C.ar  160  TYR160     -0.0009
      9  CE1       -3.9660   42.7300   -3.0870 C.ar  160  TYR160      0.0417
     10  CE2       -5.3800   42.3530   -5.0260 C.ar  160  TYR160      0.0417
     11  CZ        -5.0390   42.0850   -3.7010 C.ar  160  TYR160      0.1957
     12  OH        -5.7530   41.1580   -2.9840 O.3   160  TYR160     -0.2866
     13  N         -1.0350   44.6880   -8.6550 N.am  161  THR161     -0.1939
     14  CA        -0.3560   45.2590   -9.7890 C.3   161  THR161      0.2028
     15  C         -1.3280   45.3950  -10.9360 C.2   161  THR161      0.2642
     16  O         -2.0360   44.4150  -11.2840 O.2   161  THR161     -0.2714
     17  CB         0.8760   44.3960  -10.1960 C.3   161  THR161      0.1808
     18  OG1        1.7490   45.1770  -11.0230 O.3   161  THR161     -0.2208
     19  CG2        0.4560   43.1290  -10.9460 C.3   161  THR161      0.0379
     20  N         -1.3660   46.6040  -11.5140 N.am  162  SER162     -0.1949
     21  CA        -2.2800   46.9080  -12.6520 C.3   162  SER162      0.1924
     22  C         -2.0010   46.1900  -13.9890 C.2   162  SER162      0.2314
     23  O         -0.8510   46.0890  -14.4400 O.2   162  SER162     -0.2863
     24  CB        -2.3770   48.4130  -12.8780 C.3   162  SER162      0.2116
     25  OG        -3.2520   48.9940  -11.9200 O.3   162  SER162     -0.2180
     26  N         19.0780   43.1610   -2.6910 N.3   184  PHE184     -0.1241
     27  CA        19.4430   43.9590   -3.8690 C.3   184  PHE184      0.1605
     28  C         19.7610   45.4220   -3.4200 C.2   184  PHE184      0.2264
     29  O         20.5450   46.1380   -4.0570 O.2   184  PHE184     -0.2867
     30  CB        18.3190   43.8860   -4.9440 C.3   184  PHE184      0.0534
     31  CG        17.2440   44.9910   -4.8100 C.ar  184  PHE184     -0.0203
     32  CD1       17.4190   46.2460   -5.4310 C.ar  184  PHE184     -0.0042
     33  CD2       16.0840   44.7740   -4.0680 C.ar  184  PHE184     -0.0042
     34  CE1       16.4420   47.2660   -5.3070 C.ar  184  PHE184     -0.0003
     35  CE2       15.1060   45.7600   -3.9250 C.ar  184  PHE184     -0.0003
     36  CZ        15.2800   47.0230   -4.5450 C.ar  184  PHE184     -0.0000
     37  N          3.2040   49.0800   -1.7920 N.3   207  HIS207     -0.1226
     38  CA         4.0860   48.7830   -2.9080 C.3   207  HIS207      0.1752
     39  C          5.3440   47.9420   -2.4800 C.2   207  HIS207      0.2596
     40  O          5.9330   48.1940   -1.4320 O.2   207  HIS207     -0.2718
     41  CB         4.5210   50.0870   -3.5470 C.3   207  HIS207      0.0759
     42  CG         5.1550   49.9080   -4.8810 C.ar  207  HIS207      0.0818
     43  ND1        6.5130   49.7230   -5.0420 N.ar  207  HIS207     -0.2268
     44  CD2        4.6150   49.8480   -6.1210 C.ar  207  HIS207      0.1154
     45  CE1        6.7870   49.5690   -6.3270 C.ar  207  HIS207      0.1986
     46  NE2        5.6510   49.6400   -7.0020 N.ar  207  HIS207     -0.2212
     47  N          5.7680   46.9870   -3.3130 N.am  208  VAL208     -0.1966
     48  CA         6.8520   46.0990   -2.9400 C.3   208  VAL208      0.1727
     49  C          8.1590   46.8570   -2.6150 C.2   208  VAL208      0.2616
     50  O          8.9540   46.3960   -1.8030 O.2   208  VAL208     -0.2715
     51  CB         7.1200   44.9660   -3.9820 C.3   208  VAL208      0.0290
     52  CG1        5.9550   43.9890   -4.0370 C.3   208  VAL208      0.0023
     53  CG2        7.4450   45.5310   -5.3450 C.3   208  VAL208      0.0023
     54  N          8.3800   48.0190   -3.2230 N.am  209  VAL209     -0.1977
     55  CA         9.5520   48.7900   -2.8650 C.3   209  VAL209      0.1596
     56  C          9.3550   49.3680   -1.4460 C.2   209  VAL209      0.2287
     57  O         10.2040   49.1680   -0.5570 O.2   209  VAL209     -0.2864
     58  CB         9.8530   49.8860   -3.8840 C.3   209  VAL209      0.0276
     59  CG1       10.8710   50.8880   -3.2910 C.3   209  VAL209      0.0022
     60  CG2       10.3010   49.2640   -5.2590 C.3   209  VAL209      0.0022
     61  N         12.8650   54.5010   -8.8440 N.3   280  ALA280     -0.1231
     62  CA        12.3390   53.3710   -9.5760 C.3   280  ALA280      0.1694
     63  C         10.8970   53.6820   -9.7870 C.2   280  ALA280      0.2593
     64  O         10.3340   54.5710   -9.0970 O.2   280  ALA280     -0.2718
     65  CB        12.4300   52.1270   -8.6970 C.3   280  ALA280      0.0304
     66  N         10.2830   52.9330  -10.6910 N.am  281  GLY281     -0.1942
     67  CA         8.8220   52.9170  -10.8090 C.3   281  GLY281      0.2014
     68  C          8.3130   53.5610  -12.0760 C.2   281  GLY281      0.2639
     69  O          7.3980   53.0600  -12.7230 O.2   281  GLY281     -0.2714
     70  N          8.9180   54.6890  -12.4110 N.am  282  ALA282     -0.1963
     71  CA         8.6090   55.3920  -13.6350 C.3   282  ALA282      0.1728
     72  C          9.8980   55.6750  -14.3780 C.2   282  ALA282      0.2616
     73  O         10.9900   55.5090  -13.8350 O.2   282  ALA282     -0.2715
     74  CB         7.8720   56.6910  -13.3290 C.3   282  ALA282      0.0334
     75  N          9.7700   56.0770  -15.6360 N.am  283  THR283     -0.1951
     76  CA        10.9210   56.5900  -16.3460 C.3   283  THR283      0.1897
     77  C         10.9810   58.1300  -16.2610 C.2   283  THR283      0.2313
     78  O         10.2160   58.8730  -16.9250 O.2   283  THR283     -0.2863
     79  CB        11.0600   56.0200  -17.7620 C.3   283  THR283      0.1794
     80  OG1       11.8920   56.8940  -18.5400 O.3   283  THR283     -0.2208
     81  CG2        9.6920   55.8530  -18.4070 C.3   283  THR283      0.0378
     82  N         19.2880   54.4400  -10.3200 N.3   302  ASN302     -0.1225
     83  CA        18.0640   54.1060  -11.0370 C.3   302  ASN302      0.1785
     84  C         17.8880   52.5840  -10.9150 C.2   302  ASN302      0.2597
     85  O         18.8410   51.8260  -11.1450 O.2   302  ASN302     -0.2718
     86  CB        18.2570   54.4910  -12.4990 C.3   302  ASN302      0.1169
     87  CG        16.9600   54.5940  -13.2780 C.2   302  ASN302      0.2627
     88  OD1       15.8470   54.5070  -12.7230 O.2   302  ASN302     -0.2716
     89  ND2       17.0990   54.7440  -14.6160 N.am  302  ASN302     -0.0877
     90  N         16.6820   52.1610  -10.5330 N.am  303  ILE303     -0.1966
     91  CA        16.3280   50.7650  -10.2540 C.3   303  ILE303      0.1727
     92  C         15.1420   50.4530  -11.1490 C.2   303  ILE303      0.2616
     93  O         14.0740   51.0930  -11.0070 O.2   303  ILE303     -0.2715
     94  CB        15.8920   50.6060   -8.7750 C.3   303  ILE303      0.0290
     95  CG1       17.0810   50.6990   -7.7950 C.3   303  ILE303      0.0022
     96  CG2       15.0450   49.3520   -8.5470 C.3   303  ILE303      0.0023
     97  CD1       18.1700   49.6700   -7.9570 C.3   303  ILE303      0.0001
     98  N         15.3050   49.5370  -12.1100 N.am  304  TYR304     -0.1960
     99  CA        14.1550   48.9660  -12.8000 C.3   304  TYR304      0.1771
    100  C         13.6560   47.7780  -11.9820 C.2   304  TYR304      0.2620
    101  O         14.4420   46.8780  -11.5960 O.2   304  TYR304     -0.2715
    102  CB        14.5450   48.4550  -14.1730 C.3   304  TYR304      0.0574
    103  CG        13.4100   47.7860  -14.9110 C.ar  304  TYR304     -0.0198
    104  CD1       12.5030   48.5350  -15.6560 C.ar  304  TYR304     -0.0009
    105  CD2       13.2450   46.4030  -14.8700 C.ar  304  TYR304     -0.0009
    106  CE1       11.4610   47.9150  -16.3540 C.ar  304  TYR304      0.0417
    107  CE2       12.2080   45.7810  -15.5460 C.ar  304  TYR304      0.0417
    108  CZ        11.3290   46.5400  -16.2860 C.ar  304  TYR304      0.1957
    109  OH        10.3050   45.9120  -16.9330 O.3   304  TYR304     -0.2866
    110  N         12.3560   47.7560  -11.7220 N.am  305  GLY305     -0.1940
    111  CA        11.7680   46.6610  -10.9670 C.3   305  GLY305      0.2014
    112  C         10.3010   46.4180  -11.2680 C.2   305  GLY305      0.2640
    113  O          9.6000   47.2670  -11.8870 O.2   305  GLY305     -0.2714
    114  N          9.8280   45.2600  -10.8130 N.am  306  THR306     -0.1936
    115  CA         8.4480   44.8950  -10.9770 C.3   306  THR306      0.2028
    116  C          7.9490   44.3110   -9.6840 C.2   306  THR306      0.2643
    117  O          8.7270   43.7300   -8.8980 O.2   306  THR306     -0.2714
    118  CB         8.2850   43.8120  -12.0450 C.3   306  THR306      0.1808
    119  OG1        9.0410   42.6360  -11.6690 O.3   306  THR306     -0.2208
    120  CG2        8.7300   44.3300  -13.4070 C.3   306  THR306      0.0379
    121  N          6.6420   44.4170   -9.4820 N.am  307  THR307     -0.1936
    122  CA         5.9670   43.6990   -8.4120 C.3   307  THR307      0.2028
    123  C          6.2430   42.1940   -8.4990 C.2   307  THR307      0.2642
    124  O          6.4790   41.5380   -7.4770 O.2   307  THR307     -0.2714
    125  CB         4.4460   43.9700   -8.4490 C.3   307  THR307      0.1808
    126  OG1        4.2180   45.3370   -8.0800 O.3   307  THR307     -0.2208
    127  CG2        3.7220   43.0620   -7.4800 C.3   307  THR307      0.0379
    128  N          6.2440   41.6620   -9.7260 N.am  308  GLU308     -0.1976
    129  CA         6.3810   40.2200   -9.9430 C.3   308  GLU308      0.1602
    130  C          7.7760   39.6380   -9.6630 C.2   308  GLU308      0.2287
    131  O          7.8760   38.5270   -9.1610 O.2   308  GLU308     -0.2864
    132  CB         5.9160   39.8580  -11.3540 C.3   308  GLU308      0.0415
    133  CG         4.4080   40.0350  -11.5510 C.3   308  GLU308      0.1163
    134  CD         4.0150   41.4130  -12.0510 C.2   308  GLU308      0.3649
    135  OE1        4.8170   42.3540  -11.9450 O.co2 308  GLU308     -0.2457
    136  OE2        2.9000   41.5550  -12.5940 O.co2 308  GLU308     -0.2457
    137  N         10.6940   41.8970   -8.5510 N.3   310  MET310     -0.1230
    138  CA        11.5170   42.9010   -7.8570 C.3   310  MET310      0.1702
    139  C         12.5800   43.4710   -8.8110 C.2   310  MET310      0.2592
    140  O         12.2420   43.9210   -9.8910 O.2   310  MET310     -0.2718
    141  CB        12.1210   42.3700   -6.5380 C.3   310  MET310      0.0401
    142  CG        12.3630   43.4510   -5.4930 C.3   310  MET310      0.0596
    143  SD        10.7860   44.1250   -4.8450 S.3   310  MET310     -0.1393
    144  CE        11.3710   45.5070   -3.9200 C.3   310  MET310      0.0692
    145  N         13.8530   43.4630   -8.4330 N.am  311  ASN311     -0.1974
    146  CA        14.8370   44.2560   -9.1870 C.3   311  ASN311      0.1688
    147  C         15.5010   43.4580  -10.3120 C.2   311  ASN311      0.2292
    148  O         16.0950   42.4170  -10.0400 O.2   311  ASN311     -0.2864
    149  CB        15.9160   44.8260   -8.2550 C.3   311  ASN311      0.1181
    150  CG        17.0130   45.5480   -9.0120 C.2   311  ASN311      0.2629
    151  OD1       18.2120   45.2390   -8.8260 O.2   311  ASN311     -0.2716
    152  ND2       16.6170   46.5330   -9.8890 N.am  311  ASN311     -0.0877
    153  N         17.3150   58.0700  -17.8550 N.3   321  GLY321     -0.1225
    154  CA        16.4980   57.2840  -16.9440 C.3   321  GLY321      0.1811
    155  C         16.0290   56.0250  -17.6260 C.2   321  GLY321      0.2280
    156  O         15.2960   55.2060  -17.0320 O.2   321  GLY321     -0.2866
    157  N         19.7480   51.0160  -18.3240 N.3   324  MET324     -0.1245
    158  CA        20.1150   50.2720  -17.1190 C.3   324  MET324      0.1570
    159  C         20.6490   48.8750  -17.4710 C.2   324  MET324      0.2261
    160  O         20.5380   48.4410  -18.6180 O.2   324  MET324     -0.2867
    161  CB        18.9060   50.1610  -16.2220 C.3   324  MET324      0.0387
    162  CG        18.4750   51.5080  -15.5830 C.3   324  MET324      0.0595
    163  SD        17.0050   51.3260  -14.5500 S.3   324  MET324     -0.1393
    164  CE        15.7890   51.5060  -15.8370 C.3   324  MET324      0.0692
    165  N          9.8960   35.5270  -16.2890 N.3   381  TYR381     -0.1241
    166  CA         8.8310   36.4960  -16.1060 C.3   381  TYR381      0.1605
    167  C          8.9150   37.4930  -17.2850 C.2   381  TYR381      0.2264
    168  O          9.9840   38.0560  -17.5490 O.2   381  TYR381     -0.2867
    169  CB         8.9140   37.2150  -14.7250 C.3   381  TYR381      0.0534
    170  CG         7.9680   38.3870  -14.6990 C.ar  381  TYR381     -0.0201
    171  CD1        6.5960   38.1780  -14.7990 C.ar  381  TYR381     -0.0009
    172  CD2        8.4400   39.7000  -14.6610 C.ar  381  TYR381     -0.0009
    173  CE1        5.6940   39.2590  -14.8700 C.ar  381  TYR381      0.0417
    174  CE2        7.5620   40.7760  -14.7130 C.ar  381  TYR381      0.0417
    175  CZ         6.1810   40.5320  -14.8350 C.ar  381  TYR381      0.1957
    176  OH         5.2720   41.5570  -14.9020 O.3   381  TYR381     -0.2866
    177  N          8.0110   41.0140  -18.8830 N.3   383  THR383     -0.1218
    178  CA         7.7320   42.3090  -18.2460 C.3   383  THR383      0.1862
    179  C          6.6030   43.1040  -18.9150 C.2   383  THR383      0.2287
    180  O          6.0140   43.9830  -18.2850 O.2   383  THR383     -0.2866
    181  CB         8.9830   43.2300  -18.1810 C.3   383  THR383      0.1770
    182  OG1        9.4020   43.5440  -19.5240 O.3   383  THR383     -0.2211
    183  CG2       10.1010   42.5880  -17.4070 C.3   383  THR383      0.0375
    184  N          7.3290   45.1210  -21.0750 N.3   385  ASP385     -0.1239
    185  CA         8.0080   46.3170  -21.5410 C.3   385  ASP385      0.1674
    186  C          8.8100   46.0040  -22.8010 C.2   385  ASP385      0.2266
    187  O          9.4020   44.9060  -22.9060 O.2   385  ASP385     -0.2867
    188  CB         8.9320   46.8980  -20.4750 C.3   385  ASP385      0.1410
    189  CG         8.1680   47.4490  -19.2810 C.2   385  ASP385      0.3668
    190  OD1        7.0210   47.9520  -19.4530 O.co2 385  ASP385     -0.2456
    191  OD2        8.7170   47.3650  -18.1660 O.co2 385  ASP385     -0.2456
    192  N         15.0660   51.0130  -21.9360 N.3   397  ILE397     -0.1245
    193  CA        13.6150   50.7700  -21.8150 C.3   397  ILE397      0.1561
    194  C         12.8350   51.7450  -22.7370 C.2   397  ILE397      0.2260
    195  O         13.0530   52.9530  -22.6930 O.2   397  ILE397     -0.2867
    196  CB        13.1190   50.9230  -20.3370 C.3   397  ILE397      0.0252
    197  CG1       13.8790   49.9640  -19.3800 C.3   397  ILE397      0.0019
    198  CG2       11.5900   50.7030  -20.2560 C.3   397  ILE397      0.0019
    199  CD1       13.7950   48.4640  -19.8010 C.3   397  ILE397      0.0001
    200  N          5.8120   50.4530  -22.6700 N.3   400  ARG400     -0.1245
    201  CA         4.9390   49.2980  -22.5390 C.3   400  ARG400      0.1563
    202  C          4.6320   48.7220  -23.9070 C.2   400  ARG400      0.2260
    203  O          4.3690   49.4770  -24.8660 O.2   400  ARG400     -0.2867
    204  CB         3.6190   49.7380  -21.9180 C.3   400  ARG400      0.0307
    205  CG         3.6760   50.2170  -20.4760 C.3   400  ARG400      0.0489
    206  CD         3.1540   49.1300  -19.5890 C.3   400  ARG400      0.2205
    207  NE         4.2240   48.4200  -18.8920 N.pl3 400  ARG400     -0.0865
    208  CZ         4.0660   47.2660  -18.2390 C.cat 400  ARG400      0.5346
    209  NH1        5.1000   46.6980  -17.6200 N.pl3 400  ARG400      0.1354
    210  NH2        2.8690   46.6690  -18.2110 N.pl3 400  ARG400      0.1354
@<TRIPOS>BOND
     1   203   202    2
     2   202   201    1
     3   187   186    2
     4   186   185    1
     5   194   195    2
     6   194   193    1
     7   200   201    1
     8   201   204    1
     9   192   193    1
    10   204   205    1
    11   193   196    1
    12   185   184    1
    13   185   188    1
    14   205   206    1
    15   188   189    1
    16   196   198    1
    17   196   197    1
    18   199   197    1
    19   206   207    1
    20   182   181    1
    21   190   189   ar
    22   189   191   ar
    23   179   180    2
    24   179   178    1
    25   207   208    2
    26   177   178    1
    27   160   159    2
    28    80    79    1
    29    81    79    1
    30   157   158    1
    31   178   181    1
    32   208   210    1
    33   208   209    1
    34   181   183    1
    35   153   154    1
    36    79    76    1
    37   155   156    2
    38   155   154    1
    39   168   167    2
    40   159   158    1
    41   167   166    1
    42   158   161    1
    43   109   108    1
    44    78    77    2
    45   106   108   ar
    46   106   104   ar
    47    76    77    1
    48    76    75    1
    49   165   166    1
    50   108   107   ar
    51   161   162    1
    52   166   169    1
    53   164   163    1
    54   104   103   ar
    55    75    72   am
    56   162   163    1
    57   107   105   ar
    58   103   105   ar
    59   103   102    1
    60   176   175    1
    61   173   175   ar
    62   173   171   ar
    63   175   174   ar
    64   171   170   ar
    65   169   170    1
    66   174   172   ar
    67   170   172   ar
    68    89    87   am
    69    23    22    2
    70    72    73    2
    71    72    71    1
    72   102    99    1
    73    22    21    1
    74    71    74    1
    75    71    70    1
    76   120   118    1
    77    87    88    2
    78    87    86    1
    79    24    21    1
    80    24    25    1
    81    99    98    1
    82    99   100    1
    83    69    68    2
    84    21    20    1
    85   136   134   ar
    86    86    83    1
    87    70    68   am
    88    98    92   am
    89    68    67    1
    90   134   135   ar
    91   134   133    1
    92   118   119    1
    93   118   115    1
    94   100   110   am
    95   100   101    2
    96   113   112    2
    97   110   111    1
    98   133   132    1
    99    20    15   am
   100   132   129    1
   101    16    15    2
   102   112   111    1
   103   112   114   am
   104    92    93    2
   105    92    91    1
   106    85    84    2
   107    83    84    1
   108    83    82    1
   109    18    17    1
   110   115   114    1
   111   115   116    1
   112    19    17    1
   113    15    14    1
   114    84    90   am
   115    67    66    1
   116    66    63   am
   117    90    91    1
   118   147   148    2
   119   147   146    1
   120    91    94    1
   121    17    14    1
   122   129   128    1
   123   129   130    1
   124   140   139    2
   125   152   150   am
   126    14    13    1
   127    63    62    1
   128    63    64    2
   129   128   123   am
   130   116   121   am
   131   116   117    2
   132   130   131    2
   133    62    61    1
   134    62    65    1
   135   121   122    1
   136   146   145    1
   137   146   149    1
   138   150   151    2
   139   150   149    1
   140   139   145   am
   141   139   138    1
   142    94    96    1
   143    94    95    1
   144    13     3   am
   145   137   138    1
   146   123   122    1
   147   123   124    2
   148   125   122    1
   149   125   126    1
   150   125   127    1
   151    97    95    1
   152   138   141    1
   153     3     4    2
   154     3     2    1
   155    46    45   ar
   156    46    44   ar
   157   141   142    1
   158    45    43   ar
   159     2     5    1
   160     2     1    1
   161    44    42   ar
   162     5     6    1
   163     8     6   ar
   164     8    10   ar
   165   142   143    1
   166    32    34   ar
   167    32    31   ar
   168    53    51    1
   169    34    36   ar
   170    60    58    1
   171     6     7   ar
   172    43    42   ar
   173    10    11   ar
   174    30    31    1
   175    30    27    1
   176    42    41    1
   177   143   144    1
   178    31    33   ar
   179    36    35   ar
   180    33    35   ar
   181    29    28    2
   182    52    51    1
   183    51    48    1
   184    58    59    1
   185    58    55    1
   186    27    28    1
   187    27    26    1
   188     7     9   ar
   189    11     9   ar
   190    11    12    1
   191    41    38    1
   192    47    48    1
   193    47    39   am
   194    54    55    1
   195    54    49   am
   196    48    49    1
   197    38    39    1
   198    38    37    1
   199    55    56    1
   200    49    50    2
   201    39    40    2
   202    56    57    2
