@<TRIPOS>MOLECULE
tmp/3cw9A00.pdb
 169 158 0 0 0
SMALL
GASTEIGER

@<TRIPOS>ATOM
      1  N         32.5350   24.0490   66.2590 N.3   161  THR161     -0.1218
      2  CA        33.0630   24.1840   67.6050 C.3   161  THR161      0.1862
      3  C         34.3390   25.0110   67.5930 C.2   161  THR161      0.2287
      4  O         35.0810   25.0260   66.6040 O.2   161  THR161     -0.2866
      5  CB        33.2500   22.8140   68.3170 C.3   161  THR161      0.1770
      6  OG1       33.4790   23.0440   69.7170 O.3   161  THR161     -0.2211
      7  CG2       34.4160   22.0340   67.7220 C.3   161  THR161      0.0375
      8  N         24.8670   17.0170   80.1260 N.3   280  ALA280     -0.1231
      9  CA        26.0860   17.0340   79.3220 C.3   280  ALA280      0.1694
     10  C         26.4320   18.4680   78.9360 C.2   280  ALA280      0.2593
     11  O         25.6010   19.3640   79.0680 O.2   280  ALA280     -0.2718
     12  CB        25.9100   16.1780   78.0560 C.3   280  ALA280      0.0304
     13  N         27.6580   18.6770   78.4560 N.am  281  GLY281     -0.1942
     14  CA        28.0490   19.9690   77.8830 C.3   281  GLY281      0.2014
     15  C         29.1810   20.6300   78.6380 C.2   281  GLY281      0.2639
     16  O         29.9400   21.4200   78.0720 O.2   281  GLY281     -0.2714
     17  N         29.2990   20.2800   79.9120 N.am  282  ALA282     -0.1963
     18  CA        30.2800   20.8750   80.8230 C.3   282  ALA282      0.1728
     19  C         30.3950   19.9890   82.0480 C.2   282  ALA282      0.2617
     20  O         29.5700   19.1060   82.2520 O.2   282  ALA282     -0.2715
     21  CB        29.8350   22.2660   81.2330 C.3   282  ALA282      0.0334
     22  N         31.4040   20.2380   82.8800 N.am  283  THR283     -0.1937
     23  CA        31.4690   19.5810   84.1710 C.3   283  THR283      0.2028
     24  C         30.2290   19.9580   84.9860 C.2   283  THR283      0.2642
     25  O         29.8980   21.1370   85.1340 O.2   283  THR283     -0.2714
     26  CB        32.7470   19.9440   84.9500 C.3   283  THR283      0.1808
     27  OG1       33.8880   19.4150   84.2680 O.3   283  THR283     -0.2208
     28  CG2       32.7010   19.3530   86.3450 C.3   283  THR283      0.0379
     29  N         29.5360   18.9340   85.4690 N.am  284  MET284     -0.1976
     30  CA        28.4160   19.0930   86.3800 C.3   284  MET284      0.1605
     31  C         28.9770   19.5050   87.7460 C.2   284  MET284      0.2287
     32  O         29.6740   18.7130   88.3820 O.2   284  MET284     -0.2864
     33  CB        27.6450   17.7620   86.4670 C.3   284  MET284      0.0413
     34  CG        26.6190   17.6600   87.5840 C.3   284  MET284      0.0598
     35  SD        25.4770   19.0590   87.6270 S.3   284  MET284     -0.1393
     36  CE        24.3380   18.6600   86.3150 C.3   284  MET284      0.0692
     37  N         24.9210   11.3780   84.0260 N.3   302  ASN302     -0.1225
     38  CA        25.9250   12.2930   83.4750 C.3   302  ASN302      0.1785
     39  C         26.4580   11.7070   82.1740 C.2   302  ASN302      0.2597
     40  O         26.8380   10.5420   82.1350 O.2   302  ASN302     -0.2718
     41  CB        27.0770   12.5040   84.4710 C.3   302  ASN302      0.1169
     42  CG        27.8550   13.8140   84.2320 C.2   302  ASN302      0.2627
     43  OD1       27.6330   14.5220   83.2500 O.2   302  ASN302     -0.2716
     44  ND2       28.7630   14.1380   85.1530 N.am  302  ASN302     -0.0877
     45  N         26.4720   12.5160   81.1150 N.am  303  ILE303     -0.1966
     46  CA        26.9300   12.0780   79.8040 C.3   303  ILE303      0.1727
     47  C         28.0990   12.9750   79.3990 C.2   303  ILE303      0.2616
     48  O         27.9360   14.1880   79.2170 O.2   303  ILE303     -0.2715
     49  CB        25.7860   12.1270   78.7270 C.3   303  ILE303      0.0290
     50  CG1       24.7300   11.0240   78.9540 C.3   303  ILE303      0.0022
     51  CG2       26.3570   12.0690   77.2980 C.3   303  ILE303      0.0023
     52  CD1       25.1870    9.5860   78.6160 C.3   303  ILE303      0.0001
     53  N         29.2870   12.3840   79.3090 N.am  304  TYR304     -0.1960
     54  CA        30.4390   13.1070   78.7870 C.3   304  TYR304      0.1771
     55  C         30.5050   12.8810   77.2820 C.2   304  TYR304      0.2620
     56  O         30.3760   11.7500   76.8070 O.2   304  TYR304     -0.2715
     57  CB        31.7390   12.6590   79.4730 C.3   304  TYR304      0.0574
     58  CG        32.9820   13.1730   78.7870 C.ar  304  TYR304     -0.0198
     59  CD1       33.5590   14.3880   79.1600 C.ar  304  TYR304     -0.0009
     60  CD2       33.5670   12.4500   77.7460 C.ar  304  TYR304     -0.0009
     61  CE1       34.6930   14.8730   78.5100 C.ar  304  TYR304      0.0417
     62  CE2       34.6910   12.9190   77.0930 C.ar  304  TYR304      0.0417
     63  CZ        35.2520   14.1250   77.4770 C.ar  304  TYR304      0.1957
     64  OH        36.3690   14.5690   76.8100 O.3   304  TYR304     -0.2866
     65  N         30.7030   13.9560   76.5290 N.am  305  GLY305     -0.1940
     66  CA        30.9030   13.8340   75.0900 C.3   305  GLY305      0.2014
     67  C         31.4720   15.0670   74.4260 C.2   305  GLY305      0.2640
     68  O         31.7540   16.0770   75.0750 O.2   305  GLY305     -0.2714
     69  N         31.6300   14.9730   73.1120 N.am  306  THR306     -0.1936
     70  CA        32.2490   16.0120   72.3050 C.3   306  THR306      0.2028
     71  C         31.4820   16.0750   70.9820 C.2   306  THR306      0.2643
     72  O         30.8120   15.1140   70.5940 O.2   306  THR306     -0.2714
     73  CB        33.7430   15.6830   72.0150 C.3   306  THR306      0.1808
     74  OG1       33.8380   14.4140   71.3520 O.3   306  THR306     -0.2208
     75  CG2       34.5860   15.6230   73.3140 C.3   306  THR306      0.0379
     76  N         31.5750   17.2080   70.2970 N.am  307  THR307     -0.1936
     77  CA        31.0110   17.3530   68.9460 C.3   307  THR307      0.2028
     78  C         31.6130   16.3170   68.0000 C.2   307  THR307      0.2642
     79  O         30.9180   15.7050   67.1810 O.2   307  THR307     -0.2714
     80  CB        31.3080   18.7630   68.4090 C.3   307  THR307      0.1808
     81  OG1       30.6880   19.7210   69.2710 O.3   307  THR307     -0.2208
     82  CG2       30.7890   18.9430   66.9900 C.3   307  THR307      0.0379
     83  N         32.9140   16.1150   68.1530 N.am  308  GLU308     -0.1976
     84  CA        33.6960   15.2630   67.2650 C.3   308  GLU308      0.1602
     85  C         33.4310   13.7620   67.4070 C.2   308  GLU308      0.2287
     86  O         33.4740   13.0350   66.4150 O.2   308  GLU308     -0.2864
     87  CB        35.1790   15.5780   67.4460 C.3   308  GLU308      0.0415
     88  CG        35.5750   16.9770   66.9470 C.3   308  GLU308      0.1163
     89  CD        35.5060   18.0720   68.0190 C.2   308  GLU308      0.3649
     90  OE1       34.8100   17.9220   69.0440 O.co2 308  GLU308     -0.2457
     91  OE2       36.1600   19.1120   67.8250 O.co2 308  GLU308     -0.2457
     92  N         30.2250   15.0590   90.0760 N.3   321  GLY321     -0.1225
     93  CA        30.1110   15.4640   88.6780 C.3   321  GLY321      0.1811
     94  C         31.2930   15.0890   87.7960 C.2   321  GLY321      0.2280
     95  O         31.1650   15.0530   86.5780 O.2   321  GLY321     -0.2866
     96  N         33.1820    9.3750   85.7960 N.3   324  MET324     -0.1245
     97  CA        32.4100    8.6730   84.7750 C.3   324  MET324      0.1570
     98  C         33.1970    7.4730   84.2060 C.2   324  MET324      0.2261
     99  O         34.3710    7.2750   84.5260 O.2   324  MET324     -0.2867
    100  CB        32.0030    9.6480   83.6580 C.3   324  MET324      0.0387
    101  CG        30.8860   10.6190   84.0390 C.3   324  MET324      0.0595
    102  SD        30.6010   11.9540   82.8510 S.3   324  MET324     -0.1393
    103  CE        31.9720   13.0490   83.2320 C.3   324  MET324      0.0692
    104  N         40.6470   10.2330   68.6990 N.3   381  TYR381     -0.1241
    105  CA        40.3210   11.6520   68.8000 C.3   381  TYR381      0.1605
    106  C         40.8360   12.2230   70.1250 C.2   381  TYR381      0.2264
    107  O         40.6070   11.6460   71.1910 O.2   381  TYR381     -0.2867
    108  CB        38.8180   11.9300   68.6180 C.3   381  TYR381      0.0534
    109  CG        38.4640   13.3590   68.9940 C.ar  381  TYR381     -0.0201
    110  CD1       38.8640   14.4290   68.1930 C.ar  381  TYR381     -0.0009
    111  CD2       37.7760   13.6380   70.1730 C.ar  381  TYR381     -0.0009
    112  CE1       38.5740   15.7430   68.5510 C.ar  381  TYR381      0.0417
    113  CE2       37.4730   14.9550   70.5430 C.ar  381  TYR381      0.0417
    114  CZ        37.8790   15.9970   69.7270 C.ar  381  TYR381      0.1957
    115  OH        37.6030   17.2930   70.0880 O.3   381  TYR381     -0.2866
    116  N         40.6580   14.8080   73.0030 N.3   383  THR383     -0.1218
    117  CA        39.5820   15.6310   73.5620 C.3   383  THR383      0.1862
    118  C         40.0140   17.0140   74.0710 C.2   383  THR383      0.2287
    119  O         39.1780   17.9190   74.1820 O.2   383  THR383     -0.2866
    120  CB        38.8630   14.9020   74.7310 C.3   383  THR383      0.1770
    121  OG1       39.7680   14.7650   75.8400 O.3   383  THR383     -0.2211
    122  CG2       38.3570   13.5190   74.2940 C.3   383  THR383      0.0375
    123  N         40.7820   17.3400   77.0600 N.3   385  ASP385     -0.1239
    124  CA        40.3430   17.2840   78.4510 C.3   385  ASP385      0.1674
    125  C         41.3750   16.5610   79.2950 C.2   385  ASP385      0.2266
    126  O         41.8710   15.4890   78.9150 O.2   385  ASP385     -0.2867
    127  CB        38.9830   16.5970   78.5720 C.3   385  ASP385      0.1410
    128  CG        37.8650   17.4330   78.0010 C.2   385  ASP385      0.3668
    129  OD1       37.8090   18.6530   78.3130 O.co2 385  ASP385     -0.2456
    130  OD2       37.0620   16.8770   77.2220 O.co2 385  ASP385     -0.2456
    131  N         37.2720   13.6400   85.1700 N.3   397  ILE397     -0.1245
    132  CA        37.5210   14.7990   84.3000 C.3   397  ILE397      0.1561
    133  C         37.9240   15.9980   85.1630 C.2   397  ILE397      0.2260
    134  O         37.1760   16.3940   86.0590 O.2   397  ILE397     -0.2867
    135  CB        36.2740   15.1430   83.4160 C.3   397  ILE397      0.0252
    136  CG1       35.8690   13.9460   82.5330 C.3   397  ILE397      0.0019
    137  CG2       36.5040   16.4180   82.5700 C.3   397  ILE397      0.0019
    138  CD1       36.9570   13.4480   81.5480 C.3   397  ILE397      0.0001
    139  N         40.5750   21.5030   81.3320 N.3   400  ARG400     -0.1245
    140  CA        41.0600   21.5520   79.9570 C.3   400  ARG400      0.1563
    141  C         42.5850   21.5300   79.8650 C.2   400  ARG400      0.2260
    142  O         43.2830   22.0510   80.7400 O.2   400  ARG400     -0.2867
    143  CB        40.4910   22.7800   79.2350 C.3   400  ARG400      0.0307
    144  CG        38.9750   22.7370   79.0150 C.3   400  ARG400      0.0489
    145  CD        38.5560   21.7600   77.9190 C.3   400  ARG400      0.2205
    146  NE        39.0140   22.1710   76.5910 N.pl3 400  ARG400     -0.0865
    147  CZ        38.4910   21.7480   75.4410 C.cat 400  ARG400      0.5346
    148  NH1       37.4780   20.8870   75.4310 N.pl3 400  ARG400      0.1354
    149  NH2       38.9760   22.1940   74.2900 N.pl3 400  ARG400      0.1354
    150  N         34.2940   27.0360   79.3130 N.3   406  ILE406     -0.1245
    151  CA        32.9780   26.4700   79.0150 C.3   406  ILE406      0.1561
    152  C         31.9040   27.1130   79.8960 C.2   406  ILE406      0.2260
    153  O         31.8550   26.9040   81.1140 O.2   406  ILE406     -0.2867
    154  CB        32.9570   24.9040   79.0840 C.3   406  ILE406      0.0252
    155  CG1       34.0880   24.3120   78.2240 C.3   406  ILE406      0.0019
    156  CG2       31.6030   24.3730   78.6190 C.3   406  ILE406      0.0019
    157  CD1       34.3160   22.8140   78.4010 C.3   406  ILE406      0.0001
    158  N         27.6150   25.5410   78.7370 N.3   409  GLY409     -0.1225
    159  CA        27.8390   24.4000   77.8410 C.3   409  GLY409      0.1811
    160  C         28.4020   24.7800   76.4830 C.2   409  GLY409      0.2280
    161  O         28.4420   23.9600   75.5680 O.2   409  GLY409     -0.2866
    162  N         31.6760   26.2160   74.3340 N.3   411  ASN411     -0.1240
    163  CA        33.1200   26.4350   74.3230 C.3   411  ASN411      0.1653
    164  C         33.4350   27.8520   73.8560 C.2   411  ASN411      0.2266
    165  O         33.0090   28.2730   72.7740 O.2   411  ASN411     -0.2867
    166  CB        33.8300   25.4370   73.4050 C.3   411  ASN411      0.1155
    167  CG        33.8190   24.0270   73.9430 C.2   411  ASN411      0.2627
    168  OD1       32.9530   23.6470   74.7260 O.2   411  ASN411     -0.2716
    169  ND2       34.7850   23.2350   73.5110 N.am  411  ASN411     -0.0877
@<TRIPOS>BOND
     1     1     2    1
     2    86    85    2
     3     4     3    2
     4    88    87    1
     5    88    89    1
     6    82    80    1
     7    79    78    2
     8    84    85    1
     9    84    87    1
    10    84    83    1
    11     3     2    1
    12     2     5    1
    13     7     5    1
    14    91    89   ar
    15    78    83   am
    16    78    77    1
    17    89    90   ar
    18   110   112   ar
    19   110   109   ar
    20     5     6    1
    21    80    77    1
    22    80    81    1
    23   112   114   ar
    24   108   105    1
    25   108   109    1
    26   104   105    1
    27   105   106    1
    28    77    76    1
    29   109   111   ar
    30   114   115    1
    31   114   113   ar
    32   106   107    2
    33   111   113   ar
    34    76    71   am
    35    72    71    2
    36    71    70    1
    37    74    73    1
    38    73    70    1
    39    73    75    1
    40    70    69    1
    41   165   164    2
    42   116   117    1
    43    69    67   am
    44   166   167    1
    45   166   163    1
    46   169   167   am
    47   117   118    1
    48   117   120    1
    49   164   163    1
    50   167   168    2
    51   118   119    2
    52   149   147    1
    53   122   120    1
    54   163   162    1
    55    67    68    2
    56    67    66    1
    57   120   121    1
    58    66    65    1
    59   148   147    1
    60   147   146    2
    61   161   160    2
    62   160   159    1
    63    65    55   am
    64   146   145    1
    65    56    55    2
    66    64    63    1
    67   123   124    1
    68    62    63   ar
    69    62    60   ar
    70   130   128   ar
    71    55    54    1
    72    51    49    1
    73    63    61   ar
    74    60    58   ar
    75   159   158    1
    76    14    13    1
    77    14    15    1
    78   145   144    1
    79   128   129   ar
    80   128   127    1
    81    12     9    1
    82    16    15    2
    83   155   157    1
    84   155   154    1
    85   124   127    1
    86   124   125    1
    87    13    10   am
    88    61    59   ar
    89    52    50    1
    90   156   154    1
    91    15    17   am
    92    49    50    1
    93    49    46    1
    94    58    59   ar
    95    58    57    1
    96    54    53    1
    97    54    57    1
    98   126   125    2
    99    10    11    2
   100    10     9    1
   101   144   143    1
   102   151   154    1
   103   151   150    1
   104   151   152    1
   105    48    47    2
   106   143   140    1
   107    53    47   am
   108     9     8    1
   109    47    46    1
   110    46    45    1
   111   141   140    1
   112   141   142    2
   113   152   153    2
   114    17    18    1
   115   140   139    1
   116    18    21    1
   117    18    19    1
   118    45    39   am
   119   138   136    1
   120    19    20    2
   121    19    22   am
   122    40    39    2
   123    39    38    1
   124   136   135    1
   125   137   135    1
   126   102   103    1
   127   102   101    1
   128    22    23    1
   129    43    42    2
   130   135   132    1
   131    38    37    1
   132    38    41    1
   133   100   101    1
   134   100    97    1
   135    23    26    1
   136    23    24    1
   137    98    99    2
   138    98    97    1
   139    42    41    1
   140    42    44   am
   141    27    26    1
   142   132   133    1
   143   132   131    1
   144    97    96    1
   145    26    28    1
   146    24    25    2
   147    24    29   am
   148   133   134    2
   149    29    30    1
   150    36    35    1
   151    30    33    1
   152    30    31    1
   153    33    34    1
   154    95    94    2
   155    34    35    1
   156    31    32    2
   157    94    93    1
   158    93    92    1
