@<TRIPOS>MOLECULE
tmp/3cwbM04.pdb
 198 194 0 0 0
SMALL
GASTEIGER

@<TRIPOS>ATOM
      1  N         50.1320  131.8110   88.5360 N.3   121  LEU121     -0.1245
      2  CA        50.0120  132.8130   87.4960 C.3   121  LEU121      0.1561
      3  C         48.5910  133.3360   87.3610 C.2   121  LEU121      0.2260
      4  O         48.3770  134.5430   87.2190 O.2   121  LEU121     -0.2867
      5  CB        50.4770  132.2160   86.1810 C.3   121  LEU121      0.0270
      6  CG        51.9700  132.4750   86.0790 C.3   121  LEU121      0.0019
      7  CD1       52.6290  131.5350   85.1100 C.3   121  LEU121      0.0001
      8  CD2       52.1570  133.9180   85.6590 C.3   121  LEU121      0.0001
      9  N         47.5480  135.2090   90.6170 N.3   124  MET124     -0.1230
     10  CA        48.1490  136.5240   90.4840 C.3   124  MET124      0.1702
     11  C         47.2780  137.4400   89.6070 C.2   124  MET124      0.2592
     12  O         46.8760  138.5380   90.0090 O.2   124  MET124     -0.2718
     13  CB        49.5280  136.4040   89.8440 C.3   124  MET124      0.0401
     14  CG        50.6480  135.9870   90.7670 C.3   124  MET124      0.0596
     15  SD        52.2370  136.3180   89.9400 S.3   124  MET124     -0.1393
     16  CE        52.8960  137.5840   90.9710 C.3   124  MET124      0.0692
     17  N         47.0100  136.9790   88.3890 N.am  125  ALA125     -0.1980
     18  CA        46.2050  137.7400   87.4440 C.3   125  ALA125      0.1597
     19  C         44.8590  138.0540   88.0540 C.2   125  ALA125      0.2287
     20  O         44.4200  139.2080   88.0380 O.2   125  ALA125     -0.2864
     21  CB        46.0090  136.9470   86.1690 C.3   125  ALA125      0.0319
     22  N         43.7070  138.2500   91.2040 N.3   127  ALA127     -0.1231
     23  CA        43.7120  139.3380   92.1740 C.3   127  ALA127      0.1694
     24  C         43.8950  140.7010   91.5020 C.2   127  ALA127      0.2592
     25  O         43.3050  141.7010   91.9160 O.2   127  ALA127     -0.2718
     26  CB        44.8030  139.1190   93.1980 C.3   127  ALA127      0.0304
     27  N         44.7000  140.7370   90.4520 N.am  128  PHE128     -0.1976
     28  CA        44.9360  141.9970   89.7900 C.3   128  PHE128      0.1639
     29  C         43.6540  142.6660   89.3630 C.2   128  PHE128      0.2290
     30  O         43.4070  143.8340   89.6770 O.2   128  PHE128     -0.2864
     31  CB        45.8460  141.8350   88.5780 C.3   128  PHE128      0.0560
     32  CG        45.9710  143.0930   87.7800 C.ar  128  PHE128     -0.0200
     33  CD1       45.8960  144.3390   88.4030 C.ar  128  PHE128     -0.0042
     34  CD2       46.1230  143.0590   86.4130 C.ar  128  PHE128     -0.0042
     35  CE1       45.9650  145.5430   87.6630 C.ar  128  PHE128     -0.0003
     36  CE2       46.1950  144.2610   85.6610 C.ar  128  PHE128     -0.0003
     37  CZ        46.1130  145.5010   86.2920 C.ar  128  PHE128     -0.0000
     38  N         41.1200  143.6460   92.2700 N.3   131  TYR131     -0.1241
     39  CA        41.5440  144.9020   92.8790 C.3   131  TYR131      0.1605
     40  C         41.0990  146.1600   92.1350 C.2   131  TYR131      0.2264
     41  O         40.9060  147.2110   92.7440 O.2   131  TYR131     -0.2867
     42  CB        43.0700  144.9030   93.0030 C.3   131  TYR131      0.0534
     43  CG        43.6650  146.0620   93.7830 C.ar  131  TYR131     -0.0201
     44  CD1       43.3200  146.2930   95.1240 C.ar  131  TYR131     -0.0009
     45  CD2       44.6310  146.8810   93.1980 C.ar  131  TYR131     -0.0009
     46  CE1       43.9390  147.3160   95.8650 C.ar  131  TYR131      0.0417
     47  CE2       45.2570  147.8980   93.9210 C.ar  131  TYR131      0.0417
     48  CZ        44.9170  148.1110   95.2520 C.ar  131  TYR131      0.1957
     49  OH        45.5980  149.0850   95.9590 O.3   131  TYR131     -0.2866
     50  N         44.1550  153.6980   93.4650 N.3   138  MET138     -0.1245
     51  CA        45.1230  152.6650   93.1330 C.3   138  MET138      0.1570
     52  C         44.5130  151.8400   92.0130 C.2   138  MET138      0.2261
     53  O         45.0930  151.7170   90.9320 O.2   138  MET138     -0.2867
     54  CB        45.4240  151.7920   94.3490 C.3   138  MET138      0.0387
     55  CG        46.0870  152.5820   95.4390 C.3   138  MET138      0.0595
     56  SD        47.3220  153.6600   94.6990 S.3   138  MET138     -0.1393
     57  CE        48.8440  153.1510   95.5700 C.3   138  MET138      0.0692
     58  N         45.1940  153.6740   88.7830 N.3   141  TRP141     -0.1227
     59  CA        46.6050  153.7120   88.5150 C.3   141  TRP141      0.1737
     60  C         47.2740  152.3440   88.5010 C.2   141  TRP141      0.2596
     61  O         48.3260  152.1580   87.8830 O.2   141  TRP141     -0.2718
     62  CB        47.2430  154.6620   89.5060 C.3   141  TRP141      0.0564
     63  CG        46.7380  156.0300   89.2420 C.ar  141  TRP141      0.0003
     64  CD1       45.9640  156.8090   90.0620 C.ar  141  TRP141      0.0946
     65  CD2       46.8960  156.7610   88.0240 C.ar  141  TRP141      0.0152
     66  NE1       45.6260  157.9800   89.4200 N.ar  141  TRP141     -0.2442
     67  CE2       46.1850  157.9730   88.1680 C.ar  141  TRP141      0.0810
     68  CE3       47.5680  156.5040   86.8240 C.ar  141  TRP141      0.0012
     69  CZ2       46.1280  158.9200   87.1580 C.ar  141  TRP141      0.0191
     70  CZ3       47.5110  157.4430   85.8250 C.ar  141  TRP141      0.0001
     71  CH2       46.7940  158.6390   85.9940 C.ar  141  TRP141      0.0015
     72  N         46.6620  151.3740   89.1700 N.am  142  GLY142     -0.1957
     73  CA        47.2260  150.0390   89.1430 C.3   142  GLY142      0.1869
     74  C         46.8640  149.4570   87.7820 C.2   142  GLY142      0.2309
     75  O         47.7180  148.9940   87.0040 O.2   142  GLY142     -0.2863
     76  N         49.0500  150.8780   85.1770 N.3   145  VAL145     -0.1231
     77  CA        50.4450  150.5080   85.0840 C.3   145  VAL145      0.1692
     78  C         50.6290  149.0780   84.6750 C.2   145  VAL145      0.2591
     79  O         51.4470  148.7650   83.8170 O.2   145  VAL145     -0.2718
     80  CB        51.1490  150.6750   86.4160 C.3   145  VAL145      0.0266
     81  CG1       52.5850  150.2470   86.2940 C.3   145  VAL145      0.0020
     82  CG2       51.0640  152.0940   86.8590 C.3   145  VAL145      0.0020
     83  N         49.8560  148.2030   85.2960 N.am  146  ILE146     -0.1980
     84  CA        50.0050  146.7960   85.0200 C.3   146  ILE146      0.1595
     85  C         49.7430  146.4150   83.5890 C.2   146  ILE146      0.2287
     86  O         50.5860  145.7780   82.9530 O.2   146  ILE146     -0.2864
     87  CB        49.1440  145.9750   85.9570 C.3   146  ILE146      0.0276
     88  CG1       49.4410  146.4140   87.3980 C.3   146  ILE146      0.0022
     89  CG2       49.4340  144.5030   85.7480 C.3   146  ILE146      0.0022
     90  CD1       49.1110  145.4090   88.4840 C.3   146  ILE146      0.0001
     91  N         52.1610  147.1270   81.0900 N.3   149  LEU149     -0.1231
     92  CA        53.3210  146.2700   81.0190 C.3   149  LEU149      0.1693
     93  C         53.4990  145.5950   79.6620 C.2   149  LEU149      0.2592
     94  O         54.6200  145.4760   79.1590 O.2   149  LEU149     -0.2718
     95  CB        53.2510  145.2150   82.1220 C.3   149  LEU149      0.0284
     96  CG        53.7260  145.7590   83.4680 C.3   149  LEU149      0.0019
     97  CD1       53.7080  144.6610   84.5170 C.3   149  LEU149      0.0001
     98  CD2       55.1470  146.3150   83.3010 C.3   149  LEU149      0.0001
     99  N         52.3980  145.1680   79.0540 N.am  150  PHE150     -0.1976
    100  CA        52.4850  144.4690   77.7760 C.3   150  PHE150      0.1639
    101  C         52.9850  145.3790   76.6690 C.2   150  PHE150      0.2290
    102  O         53.4670  144.9140   75.6400 O.2   150  PHE150     -0.2864
    103  CB        51.1240  143.8280   77.4060 C.3   150  PHE150      0.0560
    104  CG        50.5990  142.8520   78.4530 C.ar  150  PHE150     -0.0200
    105  CD1       51.4920  142.0830   79.2250 C.ar  150  PHE150     -0.0042
    106  CD2       49.2240  142.7320   78.6970 C.ar  150  PHE150     -0.0042
    107  CE1       51.0360  141.2200   80.2270 C.ar  150  PHE150     -0.0003
    108  CE2       48.7460  141.8660   79.7020 C.ar  150  PHE150     -0.0003
    109  CZ        49.6610  141.1090   80.4710 C.ar  150  PHE150     -0.0000
    110  N         53.0060  155.7410   95.7720 N.3   268  ILE268     -0.1231
    111  CA        52.4280  154.6010   95.0750 C.3   268  ILE268      0.1692
    112  C         53.0840  153.2350   95.2740 C.2   268  ILE268      0.2592
    113  O         54.2150  152.9840   94.8260 O.2   268  ILE268     -0.2718
    114  CB        52.3510  154.9210   93.5700 C.3   268  ILE268      0.0266
    115  CG1       51.4090  153.9490   92.8860 C.3   268  ILE268      0.0019
    116  CG2       53.7320  154.8610   92.9360 C.3   268  ILE268      0.0020
    117  CD1       51.0840  154.3530   91.4790 C.3   268  ILE268      0.0001
    118  N         52.3330  152.3530   95.9330 N.am  269  LYS269     -0.1966
    119  CA        52.7790  150.9940   96.2330 C.3   269  LYS269      0.1713
    120  C         51.7060  149.9610   95.8960 C.2   269  LYS269      0.2458
    121  O         50.5240  150.1810   96.1580 O.2   269  LYS269     -0.2730
    122  CB        53.0910  150.8450   97.7360 C.3   269  LYS269      0.0311
    123  CG        51.8290  150.7110   98.6490 C.3   269  LYS269      0.0038
    124  CD        52.0780  149.9060   99.9620 C.3   269  LYS269      0.0206
    125  CE        50.7570  149.5360  100.7000 C.3   269  LYS269      0.1093
    126  NZ        50.9350  148.7340  101.9630 N.3   269  LYS269     -0.1314
    127  N         52.0940  148.8260   95.2980 N.am  270  PRO270     -0.2716
    128  CA        51.0480  147.8410   95.0100 C.3   270  PRO270      0.1536
    129  C         50.7890  147.0890   96.3190 C.2   270  PRO270      0.2598
    130  O         51.5360  147.2500   97.2860 O.2   270  PRO270     -0.2715
    131  CB        51.6940  146.9560   93.9500 C.3   270  PRO270      0.0310
    132  CG        53.1250  146.9920   94.3160 C.3   270  PRO270      0.0237
    133  CD        53.3510  148.4590   94.6280 C.3   270  PRO270      0.0939
    134  N         49.7330  146.2850   96.3680 N.am  271  GLU271     -0.1978
    135  CA        49.4390  145.5170   97.5770 C.3   271  GLU271      0.1602
    136  C         50.6530  144.5990   97.8440 C.2   271  GLU271      0.2287
    137  O         51.3450  144.1920   96.9110 O.2   271  GLU271     -0.2864
    138  CB        48.1610  144.7010   97.3650 C.3   271  GLU271      0.0415
    139  CG        47.4410  144.3200   98.6470 C.3   271  GLU271      0.1163
    140  CD        46.0450  144.9090   98.7310 C.2   271  GLU271      0.3649
    141  OE1       45.9300  146.1570   98.6430 O.co2 271  GLU271     -0.2457
    142  OE2       45.0760  144.1210   98.8870 O.co2 271  GLU271     -0.2457
    143  N         51.5620  141.4190   98.1980 N.3   273  TYR273     -0.1227
    144  CA        51.9420  140.2690   97.4030 C.3   273  TYR273      0.1736
    145  C         52.5580  140.5400   96.0380 C.2   273  TYR273      0.2595
    146  O         52.9290  139.6050   95.3350 O.2   273  TYR273     -0.2718
    147  CB        50.7770  139.2720   97.2700 C.3   273  TYR273      0.0548
    148  CG        49.4190  139.8540   96.9550 C.ar  273  TYR273     -0.0200
    149  CD1       49.0580  140.2110   95.6520 C.ar  273  TYR273     -0.0009
    150  CD2       48.4870  140.0500   97.9730 C.ar  273  TYR273     -0.0009
    151  CE1       47.7970  140.7490   95.3820 C.ar  273  TYR273      0.0417
    152  CE2       47.2350  140.5840   97.7180 C.ar  273  TYR273      0.0417
    153  CZ        46.8960  140.9310   96.4310 C.ar  273  TYR273      0.1957
    154  OH        45.6590  141.4820   96.2300 O.3   273  TYR273     -0.2866
    155  N         52.6930  141.7990   95.6470 N.am  274  PHE274     -0.1976
    156  CA        53.3110  142.0560   94.3540 C.3   274  PHE274      0.1639
    157  C         54.5940  142.8410   94.4880 C.2   274  PHE274      0.2290
    158  O         55.2570  143.1290   93.4960 O.2   274  PHE274     -0.2864
    159  CB        52.3590  142.8010   93.4200 C.3   274  PHE274      0.0560
    160  CG        51.1970  141.9790   92.9680 C.ar  274  PHE274     -0.0200
    161  CD1       51.3150  140.6160   92.8280 C.ar  274  PHE274     -0.0042
    162  CD2       49.9840  142.5710   92.6740 C.ar  274  PHE274     -0.0042
    163  CE1       50.2400  139.8590   92.4040 C.ar  274  PHE274     -0.0003
    164  CE2       48.9060  141.8190   92.2470 C.ar  274  PHE274     -0.0003
    165  CZ        49.0320  140.4680   92.1110 C.ar  274  PHE274     -0.0000
    166  N         57.9850  141.5110   92.9780 N.3   277  ALA277     -0.1231
    167  CA        57.9530  141.6820   91.5330 C.3   277  ALA277      0.1694
    168  C         58.2750  143.1440   91.3070 C.2   277  ALA277      0.2592
    169  O         59.2300  143.4840   90.6120 O.2   277  ALA277     -0.2718
    170  CB        56.5660  141.3720   91.0000 C.3   277  ALA277      0.0304
    171  N         57.4700  143.9910   91.9340 N.am  278  TYR278     -0.1976
    172  CA        57.6070  145.4350   91.8510 C.3   278  TYR278      0.1639
    173  C         59.0550  145.8290   92.0010 C.2   278  TYR278      0.2290
    174  O         59.5900  146.5490   91.1630 O.2   278  TYR278     -0.2864
    175  CB        56.7720  146.0970   92.9420 C.3   278  TYR278      0.0560
    176  CG        56.7490  147.6090   92.9110 C.ar  278  TYR278     -0.0198
    177  CD1       56.4740  148.3100   91.7360 C.ar  278  TYR278     -0.0009
    178  CD2       56.9360  148.3390   94.0790 C.ar  278  TYR278     -0.0009
    179  CE1       56.3830  149.7210   91.7320 C.ar  278  TYR278      0.0417
    180  CE2       56.8470  149.7450   94.0920 C.ar  278  TYR278      0.0417
    181  CZ        56.5700  150.4330   92.9180 C.ar  278  TYR278      0.1957
    182  OH        56.4820  151.8170   92.9430 O.3   278  TYR278     -0.2866
    183  N         61.0830  144.7730   88.9260 N.3   281  LEU281     -0.1245
    184  CA        60.7770  145.6100   87.7690 C.3   281  LEU281      0.1561
    185  C         61.4750  146.9660   87.9260 C.2   281  LEU281      0.2260
    186  O         61.9690  147.5270   86.9440 O.2   281  LEU281     -0.2867
    187  CB        59.2660  145.8280   87.6340 C.3   281  LEU281      0.0270
    188  CG        58.8720  146.7870   86.5040 C.3   281  LEU281      0.0019
    189  CD1       59.0990  146.1190   85.1660 C.3   281  LEU281      0.0001
    190  CD2       57.4240  147.1980   86.6470 C.3   281  LEU281      0.0001
    191  N         61.2540  140.9390   85.4010 N.3   294  LEU294     -0.1245
    192  CA        59.9990  140.6140   86.0520 C.3   294  LEU294      0.1561
    193  C         59.5120  139.2840   85.5210 C.2   294  LEU294      0.2260
    194  O         59.3990  138.3120   86.2560 O.2   294  LEU294     -0.2867
    195  CB        58.9500  141.6820   85.7580 C.3   294  LEU294      0.0270
    196  CG        57.5710  141.3630   86.3420 C.3   294  LEU294      0.0019
    197  CD1       57.6870  141.2710   87.8540 C.3   294  LEU294      0.0001
    198  CD2       56.5680  142.4410   85.9560 C.3   294  LEU294      0.0001
@<TRIPOS>BOND
     1   102   101    2
     2   101   100    1
     3   103   100    1
     4   103   104    1
     5   100    99    1
     6   104   106   ar
     7   104   105   ar
     8   106   108   ar
     9    99    93   am
    10    94    93    2
    11   105   107   ar
    12    93    92    1
    13   108   109   ar
    14   107   109   ar
    15    92    91    1
    16    92    95    1
    17    95    96    1
    18    86    85    2
    19    98    96    1
    20    96    97    1
    21    85    84    1
    22    79    78    2
    23    78    77    1
    24    78    83   am
    25    84    83    1
    26    84    87    1
    27    77    76    1
    28    77    80    1
    29     7     6    1
    30   189   188    1
    31   191   192    1
    32   193   192    1
    33   193   194    2
    34     8     6    1
    35    36    37   ar
    36    36    34   ar
    37    89    87    1
    38   195   192    1
    39   195   196    1
    40    70    71   ar
    41    70    68   ar
    42   198   196    1
    43    87    88    1
    44    71    69   ar
    45     6     5    1
    46    21    18    1
    47     5     2    1
    48    37    35   ar
    49    81    80    1
    50   196   197    1
    51    34    32   ar
    52    80    82    1
    53   188   190    1
    54   188   187    1
    55    68    65   ar
    56   186   185    2
    57    75    74    2
    58    69    67   ar
    59     4     3    2
    60     3     2    1
    61    88    90    1
    62    18    19    1
    63    18    17    1
    64     2     1    1
    65   187   184    1
    66    35    33   ar
    67   184   185    1
    68   184   183    1
    69    32    33   ar
    70    32    31    1
    71    74    73    1
    72    61    60    2
    73    65    67   ar
    74    65    63   ar
    75    20    19    2
    76    67    66   ar
    77    17    11   am
    78    60    59    1
    79    60    72   am
    80    59    58    1
    81    59    62    1
    82    31    28    1
    83    73    72    1
    84    63    62    1
    85    63    64   ar
    86    29    30    2
    87    29    28    1
    88    66    64   ar
    89    11    12    2
    90    11    10    1
    91    28    27    1
    92    13    10    1
    93    13    14    1
    94    15    14    1
    95    15    16    1
    96    27    24   am
    97    10     9    1
    98   169   168    2
    99    53    52    2
   100   170   167    1
   101   174   173    2
   102    22    23    1
   103   168   167    1
   104   168   171   am
   105   117   115    1
   106    24    25    2
   107    24    23    1
   108   167   166    1
   109   179   177   ar
   110   179   181   ar
   111   177   176   ar
   112   172   171    1
   113   172   173    1
   114   172   175    1
   115    52    51    1
   116   165   164   ar
   117   165   163   ar
   118    40    41    2
   119    40    39    1
   120    23    26    1
   121   164   162   ar
   122    38    39    1
   123   163   161   ar
   124   162   160   ar
   125   161   160   ar
   126    39    42    1
   127   115   114    1
   128   176   175    1
   129   176   178   ar
   130   181   182    1
   131   181   180   ar
   132   116   114    1
   133   160   159    1
   134    42    43    1
   135    51    50    1
   136    51    54    1
   137    45    43   ar
   138    45    47   ar
   139   159   156    1
   140   158   157    2
   141   114   111    1
   142    43    44   ar
   143    47    48   ar
   144   131   132    1
   145   131   128    1
   146   178   180   ar
   147   132   133    1
   148    54    55    1
   149   156   157    1
   150   156   155    1
   151   133   127    1
   152    56    55    1
   153    56    57    1
   154   113   112    2
   155   128   127    1
   156   128   129    1
   157   111   112    1
   158   111   110    1
   159    44    46   ar
   160    48    46   ar
   161    48    49    1
   162   112   118   am
   163   127   120   am
   164   146   145    2
   165   151   149   ar
   166   151   153   ar
   167   155   145   am
   168   149   148   ar
   169   120   121    2
   170   120   119    1
   171   118   119    1
   172   145   144    1
   173   154   153    1
   174   119   122    1
   175   129   134   am
   176   129   130    2
   177   134   135    1
   178   153   152   ar
   179   137   136    2
   180   148   147    1
   181   148   150   ar
   182   147   144    1
   183   138   135    1
   184   138   139    1
   185   144   143    1
   186   135   136    1
   187   152   150   ar
   188   122   123    1
   189   141   140   ar
   190   139   140    1
   191   123   124    1
   192   140   142   ar
   193   124   125    1
   194   125   126    1
