@<TRIPOS>MOLECULE
tmp/3cwdA01.pdb
 219 208 0 0 0
SMALL
GASTEIGER

@<TRIPOS>ATOM
      1  N        -28.1920   28.5720   -1.1210 N.3    61  ILE61      -0.1231
      2  CA       -28.7760   27.4000   -1.7810 C.3    61  ILE61       0.1692
      3  C        -29.5010   26.5090   -0.7700 C.2    61  ILE61       0.2592
      4  O        -30.6230   26.0810   -1.0340 O.2    61  ILE61      -0.2718
      5  CB       -27.7420   26.5810   -2.6230 C.3    61  ILE61       0.0266
      6  CG1      -27.3560   27.3420   -3.8870 C.3    61  ILE61       0.0019
      7  CG2      -28.2930   25.2050   -3.0240 C.3    61  ILE61       0.0020
      8  CD1      -26.1380   28.1820   -3.7200 C.3    61  ILE61       0.0001
      9  N        -28.8640   26.2530    0.3740 N.am   62  PHE62      -0.1976
     10  CA       -29.4570   25.4240    1.4290 C.3    62  PHE62       0.1639
     11  C        -30.8300   25.9610    1.8700 C.2    62  PHE62       0.2290
     12  O        -31.7960   25.2010    1.9350 O.2    62  PHE62      -0.2864
     13  CB       -28.5120   25.2530    2.6320 C.3    62  PHE62       0.0560
     14  CG       -28.8880   24.1060    3.5300 C.ar   62  PHE62      -0.0200
     15  CD1      -28.5350   22.7960    3.1950 C.ar   62  PHE62      -0.0042
     16  CD2      -29.6320   24.3270    4.7010 C.ar   62  PHE62      -0.0042
     17  CE1      -28.9160   21.7170    4.0190 C.ar   62  PHE62      -0.0003
     18  CE2      -30.0090   23.2630    5.5380 C.ar   62  PHE62      -0.0003
     19  CZ       -29.6560   21.9590    5.1990 C.ar   62  PHE62      -0.0000
     20  N        -32.8240   28.2910    0.2570 N.3    64  GLY64      -0.1210
     21  CA       -33.7000   28.2360   -0.9120 C.3    64  GLY64       0.1956
     22  C        -34.3860   26.8910   -0.9510 C.2    64  GLY64       0.2612
     23  O        -35.5940   26.8170   -0.8610 O.2    64  GLY64      -0.2717
     24  N        -33.5930   25.8290   -1.0430 N.am   65  CYS65      -0.1956
     25  CA       -34.0680   24.4500   -1.1110 C.3    65  CYS65       0.1843
     26  C        -35.0680   24.1380   -0.0010 C.2    65  CYS65       0.2625
     27  O        -35.9850   23.3270   -0.1930 O.2    65  CYS65      -0.2714
     28  CB       -32.8630   23.4960   -1.0530 C.3    65  CYS65       0.0997
     29  SG       -33.1990   21.7140   -0.8230 S.3    65  CYS65      -0.0797
     30  N        -34.9040   24.8120    1.1370 N.am   66  GLN66      -0.1963
     31  CA       -35.8170   24.6710    2.2930 C.3    66  GLN66       0.1733
     32  C        -37.2260   25.2130    2.1380 C.2    66  GLN66       0.2616
     33  O        -38.1600   24.5610    2.5770 O.2    66  GLN66      -0.2715
     34  CB       -35.1950   25.2090    3.5790 C.3    66  GLN66       0.0408
     35  CG       -34.5880   24.1140    4.4090 C.3    66  GLN66       0.0908
     36  CD       -33.4880   23.3560    3.6860 C.2    66  GLN66       0.2608
     37  OE1      -32.3060   23.5540    3.9740 O.2    66  GLN66      -0.2717
     38  NE2      -33.8640   22.4880    2.7470 N.am   66  GLN66      -0.0878
     39  N        -37.3750   26.3960    1.5410 N.am   67  PHE67      -0.1960
     40  CA       -38.7030   26.8900    1.1630 C.3    67  PHE67       0.1771
     41  C        -39.4550   25.8690    0.2740 C.2    67  PHE67       0.2619
     42  O        -40.6580   25.6860    0.4430 O.2    67  PHE67      -0.2715
     43  CB       -38.6360   28.2890    0.5040 C.3    67  PHE67       0.0574
     44  CG       -38.6090   28.2620   -1.0120 C.ar   67  PHE67      -0.0200
     45  CD1      -39.7970   28.3090   -1.7470 C.ar   67  PHE67      -0.0042
     46  CD2      -37.3910   28.1910   -1.7070 C.ar   67  PHE67      -0.0042
     47  CE1      -39.7790   28.2600   -3.1390 C.ar   67  PHE67      -0.0003
     48  CE2      -37.3580   28.1390   -3.1050 C.ar   67  PHE67      -0.0003
     49  CZ       -38.5580   28.1760   -3.8220 C.ar   67  PHE67      -0.0000
     50  N        -38.7480   25.2020   -0.6410 N.am   68  ARG68      -0.1963
     51  CA       -39.3870   24.3160   -1.6240 C.3    68  ARG68       0.1729
     52  C        -39.5650   22.9040   -1.0890 C.2    68  ARG68       0.2616
     53  O        -40.4170   22.1430   -1.5730 O.2    68  ARG68      -0.2715
     54  CB       -38.5940   24.2580   -2.9320 C.3    68  ARG68       0.0348
     55  CG       -39.5030   24.1720   -4.1750 C.3    68  ARG68       0.0492
     56  CD       -39.8320   22.7450   -4.5600 C.3    68  ARG68       0.2205
     57  NE       -41.0550   22.6330   -5.3460 N.pl3  68  ARG68      -0.0865
     58  CZ       -41.6020   21.4710   -5.7210 C.cat  68  ARG68       0.5346
     59  NH1      -41.0370   20.3120   -5.3750 N.pl3  68  ARG68       0.1354
     60  NH2      -42.7170   21.4600   -6.4450 N.pl3  68  ARG68       0.1354
     61  N        -38.7300   22.5390   -0.1180 N.am   69  SER69      -0.1950
     62  CA       -38.8890   21.2670    0.5630 C.3    69  SER69       0.1924
     63  C        -40.1090   21.3200    1.4910 C.2    69  SER69       0.2314
     64  O        -40.8520   20.3410    1.6120 O.2    69  SER69      -0.2863
     65  CB       -37.6120   20.8740    1.3010 C.3    69  SER69       0.2116
     66  OG       -37.9310   19.9430    2.3170 O.3    69  SER69      -0.2180
     67  N        -43.0920   21.1830   -0.8700 N.3    72  ALA72      -0.1245
     68  CA       -43.2210   19.7720   -1.2950 C.3    72  ALA72       0.1562
     69  C        -43.9410   18.8890   -0.2570 C.2    72  ALA72       0.2260
     70  O        -44.8080   18.1000   -0.6150 O.2    72  ALA72      -0.2867
     71  CB       -41.8490   19.1900   -1.6590 C.3    72  ALA72       0.0290
     72  N        -39.6420   11.9980    2.3960 N.3   103  HIS103     -0.1241
     73  CA       -38.2680   12.0250    1.8190 C.3   103  HIS103      0.1621
     74  C        -38.1940   11.1070    0.6230 C.2   103  HIS103      0.2264
     75  O        -37.6790   11.4740   -0.4320 O.2   103  HIS103     -0.2867
     76  CB       -37.2060   11.6090    2.8540 C.3   103  HIS103      0.0745
     77  CG       -37.4140   12.2270    4.2090 C.ar  103  HIS103      0.0817
     78  ND1      -37.1010   13.5450    4.4830 N.ar  103  HIS103     -0.2268
     79  CD2      -37.9650   11.7260    5.3430 C.ar  103  HIS103      0.1154
     80  CE1      -37.4240   13.8160    5.7360 C.ar  103  HIS103      0.1986
     81  NE2      -37.9620   12.7340    6.2740 N.ar  103  HIS103     -0.2212
     82  N        -40.0200   12.6900   -2.1810 N.3   106  ILE106     -0.1231
     83  CA       -39.2710   13.8150   -2.7070 C.3   106  ILE106      0.1692
     84  C        -38.1810   13.3270   -3.6580 C.2   106  ILE106      0.2592
     85  O        -38.0190   13.8700   -4.7480 O.2   106  ILE106     -0.2718
     86  CB       -38.7570   14.7810   -1.5830 C.3   106  ILE106      0.0266
     87  CG1      -39.9230   15.6680   -1.0820 C.3   106  ILE106      0.0019
     88  CG2      -37.5880   15.6890   -2.0890 C.3   106  ILE106      0.0020
     89  CD1      -39.6680   16.3880    0.2440 C.3   106  ILE106      0.0001
     90  N        -37.4720   12.2750   -3.2670 N.am  107  TYR107     -0.1976
     91  CA       -36.3690   11.7560   -4.0720 C.3   107  TYR107      0.1639
     92  C        -36.8260   11.1620   -5.3680 C.2   107  TYR107      0.2290
     93  O        -36.1850   11.3570   -6.3940 O.2   107  TYR107     -0.2864
     94  CB       -35.5340   10.7450   -3.2730 C.3   107  TYR107      0.0560
     95  CG       -34.9780   11.3790   -2.0380 C.ar  107  TYR107     -0.0198
     96  CD1      -34.6560   12.7650   -2.0130 C.ar  107  TYR107     -0.0009
     97  CD2      -34.7750   10.6180   -0.8860 C.ar  107  TYR107     -0.0009
     98  CE1      -34.1620   13.3620   -0.8470 C.ar  107  TYR107      0.0417
     99  CE2      -34.2960   11.2040    0.2710 C.ar  107  TYR107      0.0417
    100  CZ       -33.9830   12.5600    0.2830 C.ar  107  TYR107      0.1957
    101  OH       -33.4860   13.0790    1.4520 O.3   107  TYR107     -0.2866
    102  N        -38.1450   14.1870   -7.5080 N.3   110  LEU110     -0.1245
    103  CA       -36.9580   14.9060   -7.9010 C.3   110  LEU110      0.1561
    104  C        -36.2570   14.2550   -9.1080 C.2   110  LEU110      0.2260
    105  O        -35.7380   14.9530   -9.9350 O.2   110  LEU110     -0.2867
    106  CB       -36.0360   15.1200   -6.6760 C.3   110  LEU110      0.0270
    107  CG       -34.8750   16.1100   -6.7030 C.3   110  LEU110      0.0019
    108  CD1      -35.4020   17.5210   -6.9290 C.3   110  LEU110      0.0001
    109  CD2      -34.0190   15.9980   -5.3870 C.3   110  LEU110      0.0001
    110  N        -37.2440   15.7100  -12.4420 N.3   113  LEU113     -0.1245
    111  CA       -36.6930   17.0490  -12.7400 C.3   113  LEU113      0.1561
    112  C        -35.2220   17.0060  -13.1330 C.2   113  LEU113      0.2260
    113  O        -34.5880   18.0420  -13.3740 O.2   113  LEU113     -0.2867
    114  CB       -36.8400   17.9670  -11.5320 C.3   113  LEU113      0.0270
    115  CG       -38.2010   18.0660  -10.8290 C.3   113  LEU113      0.0019
    116  CD1      -38.0850   18.9760   -9.6080 C.3   113  LEU113      0.0001
    117  CD2      -39.2030   18.6090  -11.7940 C.3   113  LEU113      0.0001
    118  N        -30.6540   19.9130  -12.8980 N.3   119  VAL119     -0.1231
    119  CA       -31.9800   19.8060  -12.2920 C.3   119  VAL119      0.1692
    120  C        -32.8070   21.0660  -12.5360 C.2   119  VAL119      0.2592
    121  O        -32.2810   22.1660  -12.4610 O.2   119  VAL119     -0.2718
    122  CB       -31.8910   19.4800  -10.7840 C.3   119  VAL119      0.0266
    123  CG1      -31.0500   20.5490  -10.0190 C.3   119  VAL119      0.0020
    124  CG2      -33.3140   19.2310  -10.1720 C.3   119  VAL119      0.0020
    125  N        -34.0860   20.8750  -12.8530 N.am  120  LEU120     -0.1966
    126  CA       -35.0230   21.9810  -13.0070 C.3   120  LEU120      0.1728
    127  C        -35.3910   22.4920  -11.6720 C.2   120  LEU120      0.2616
    128  O        -35.5310   21.7180  -10.7340 O.2   120  LEU120     -0.2715
    129  CB       -36.2800   21.5590  -13.7480 C.3   120  LEU120      0.0311
    130  CG       -36.1290   21.0570  -15.1960 C.3   120  LEU120      0.0022
    131  CD1      -37.4860   20.6250  -15.7920 C.3   120  LEU120      0.0001
    132  CD2      -35.4880   22.1140  -16.0420 C.3   120  LEU120      0.0001
    133  N        -35.4620   23.8170  -11.5870 N.am  121  ILE121     -0.1977
    134  CA       -35.8170   24.5400  -10.3830 C.3   121  ILE121      0.1596
    135  C        -36.7870   25.6450  -10.8010 C.2   121  ILE121      0.2287
    136  O        -36.8990   25.9550  -11.9930 O.2   121  ILE121     -0.2864
    137  CB       -34.5700   25.1710   -9.6980 C.3   121  ILE121      0.0276
    138  CG1      -33.8990   26.1970  -10.6180 C.3   121  ILE121      0.0022
    139  CG2      -33.5860   24.0800   -9.2440 C.3   121  ILE121      0.0022
    140  CD1      -33.1540   27.2510   -9.8830 C.3   121  ILE121      0.0001
    141  N        -30.3130   24.2500  -12.9020 N.3   128  MET128     -0.1245
    142  CA       -29.0910   24.2400  -12.0960 C.3   128  MET128      0.1570
    143  C        -28.2460   22.9750  -12.3630 C.2   128  MET128      0.2261
    144  O        -28.7290   21.8410  -12.2550 O.2   128  MET128     -0.2867
    145  CB       -29.4250   24.3490  -10.6090 C.3   128  MET128      0.0387
    146  CG       -28.2460   24.7540   -9.7130 C.3   128  MET128      0.0595
    147  SD       -28.8360   25.0630   -8.0380 S.3   128  MET128     -0.1393
    148  CE       -29.5920   26.6720   -8.1920 C.3   128  MET128      0.0692
    149  N        -23.7610   22.3710   -8.1130 N.3   133  LEU133     -0.1245
    150  CA       -24.2250   21.9950   -6.7880 C.3   133  LEU133      0.1561
    151  C        -23.1100   21.2090   -6.1030 C.2   133  LEU133      0.2260
    152  O        -22.9740   21.2350   -4.9000 O.2   133  LEU133     -0.2867
    153  CB       -25.5110   21.1630   -6.8780 C.3   133  LEU133      0.0270
    154  CG       -26.8090   21.9390   -7.1160 C.3   133  LEU133      0.0019
    155  CD1      -27.8340   21.0770   -7.8070 C.3   133  LEU133      0.0001
    156  CD2      -27.3330   22.5240   -5.7860 C.3   133  LEU133      0.0001
    157  N        -26.5150   16.6180   -3.2250 N.3   144  MET144     -0.1245
    158  CA       -27.2980   16.3020   -4.4580 C.3   144  MET144      0.1570
    159  C        -26.8510   15.0730   -5.2250 C.2   144  MET144      0.2261
    160  O        -27.6590   14.4170   -5.8590 O.2   144  MET144     -0.2867
    161  CB       -27.4020   17.4850   -5.4090 C.3   144  MET144      0.0387
    162  CG       -28.1790   18.6980   -4.8550 C.3   144  MET144      0.0595
    163  SD       -29.7920   18.2960   -4.1270 S.3   144  MET144     -0.1393
    164  CE       -30.7490   18.0090   -5.6040 C.3   144  MET144      0.0692
    165  N        -28.5410   11.8780   -5.2330 N.3   147  LYS147     -0.1245
    166  CA       -29.8850   12.0440   -5.8200 C.3   147  LYS147      0.1561
    167  C        -29.8040   11.8610   -7.3220 C.2   147  LYS147      0.2260
    168  O        -30.6300   11.1560   -7.9000 O.2   147  LYS147     -0.2867
    169  CB       -30.5070   13.4230   -5.4890 C.3   147  LYS147      0.0271
    170  CG       -31.1020   13.5310   -4.0800 C.3   147  LYS147      0.0035
    171  CD       -29.9940   13.6240   -3.0630 C.3   147  LYS147      0.0206
    172  CE       -30.5300   13.6600   -1.6540 C.3   147  LYS147      0.1093
    173  NZ       -29.4650   13.1810   -0.7060 N.3   147  LYS147     -0.1314
    174  N        -28.9070   11.0670    3.6940 N.3   229  HIS229     -0.1241
    175  CA       -29.3100   12.4620    3.8280 C.3   229  HIS229      0.1621
    176  C        -29.3670   12.9490    5.2960 C.2   229  HIS229      0.2264
    177  O        -29.0480   14.1120    5.5720 O.2   229  HIS229     -0.2867
    178  CB       -30.6620   12.6790    3.1420 C.3   229  HIS229      0.0745
    179  CG       -31.0760   14.1180    3.0520 C.ar  229  HIS229      0.0817
    180  ND1      -30.7730   14.9130    1.9700 N.ar  229  HIS229     -0.2268
    181  CD2      -31.7750   14.8970    3.9050 C.ar  229  HIS229      0.1154
    182  CE1      -31.2670   16.1200    2.1580 C.ar  229  HIS229      0.1986
    183  NE2      -31.8750   16.1390    3.3300 N.ar  229  HIS229     -0.2212
    184  N        -27.1860   15.7600    7.5510 N.3   233  LEU233     -0.1245
    185  CA       -27.8090   16.7400    8.4450 C.3   233  LEU233      0.1561
    186  C        -27.0800   16.7980    9.7850 C.2   233  LEU233      0.2260
    187  O        -26.7730   17.8840   10.2740 O.2   233  LEU233     -0.2867
    188  CB       -29.2990   16.4280    8.6830 C.3   233  LEU233      0.0270
    189  CG       -30.4170   17.0650    7.8420 C.3   233  LEU233      0.0019
    190  CD1      -30.0500   18.4250    7.2340 C.3   233  LEU233      0.0001
    191  CD2      -30.8700   16.1060    6.7700 C.3   233  LEU233      0.0001
    192  N        -33.1590   26.0860   10.7560 N.3   245  LEU245     -0.1245
    193  CA       -33.9490   25.0010   10.1890 C.3   245  LEU245      0.1561
    194  C        -35.4280   25.3490   10.3780 C.2   245  LEU245      0.2260
    195  O        -35.8170   25.8450   11.4400 O.2   245  LEU245     -0.2867
    196  CB       -33.5850   23.6420   10.8180 C.3   245  LEU245      0.0270
    197  CG       -34.0410   22.3320   10.1320 C.3   245  LEU245      0.0019
    198  CD1      -33.4470   22.1160    8.7250 C.3   245  LEU245      0.0001
    199  CD2      -33.7590   21.1060   11.0190 C.3   245  LEU245      0.0001
    200  N        -39.6330   21.3230    9.0460 N.3   249  LEU249     -0.1245
    201  CA       -38.5460   20.3680    8.7650 C.3   249  LEU249      0.1561
    202  C        -37.9390   19.7850   10.0330 C.2   249  LEU249      0.2260
    203  O        -37.5790   18.6170   10.0630 O.2   249  LEU249     -0.2867
    204  CB       -37.4610   20.9700    7.8580 C.3   249  LEU249      0.0270
    205  CG       -37.9790   21.4470    6.5030 C.3   249  LEU249      0.0019
    206  CD1      -36.8250   21.8140    5.5910 C.3   249  LEU249      0.0001
    207  CD2      -38.9390   20.4180    5.8450 C.3   249  LEU249      0.0001
    208  N        -37.7110   15.9340   11.0590 N.3   253  TYR253     -0.1241
    209  CA       -36.4040   15.3170   11.3240 C.3   253  TYR253      0.1605
    210  C        -36.1610   14.9290   12.7930 C.2   253  TYR253      0.2264
    211  O        -35.2360   14.1670   13.0770 O.2   253  TYR253     -0.2867
    212  CB       -35.2570   16.2050   10.7770 C.3   253  TYR253      0.0534
    213  CG       -35.0650   16.1130    9.2660 C.ar  253  TYR253     -0.0201
    214  CD1      -34.5520   14.9550    8.6810 C.ar  253  TYR253     -0.0009
    215  CD2      -35.3850   17.1860    8.4280 C.ar  253  TYR253     -0.0009
    216  CE1      -34.3770   14.8560    7.3090 C.ar  253  TYR253      0.0417
    217  CE2      -35.2180   17.0930    7.0380 C.ar  253  TYR253      0.0417
    218  CZ       -34.7160   15.9230    6.4800 C.ar  253  TYR253      0.1957
    219  OH       -34.5200   15.8050    5.0940 O.3   253  TYR253     -0.2866
@<TRIPOS>BOND
     1   132   130    1
     2   131   130    1
     3   130   129    1
     4   129   126    1
     5   113   112    2
     6   112   111    1
     7   126   125    1
     8   126   127    1
     9   141   142    1
    10   118   119    1
    11   125   120   am
    12   111   110    1
    13   111   114    1
    14   120   121    2
    15   120   119    1
    16   143   144    2
    17   143   142    1
    18   119   122    1
    19   142   145    1
    20   136   135    2
    21   117   115    1
    22   127   133   am
    23   127   128    2
    24   133   134    1
    25   114   115    1
    26   115   116    1
    27   135   134    1
    28   122   124    1
    29   122   123    1
    30   138   140    1
    31   138   137    1
    32   145   146    1
    33   134   137    1
    34   105   104    2
    35   146   147    1
    36   137   139    1
    37   104   103    1
    38   148   147    1
    39   149   150    1
    40   103   102    1
    41   103   106    1
    42   168   167    2
    43   155   154    1
    44   167   166    1
    45   154   153    1
    46   154   156    1
    47   108   107    1
    48   153   150    1
    49   150   151    1
    50   107   106    1
    51   107   109    1
    52    60    58    1
    53    93    92    2
    54   151   152    2
    55   160   159    2
    56   166   169    1
    57   166   165    1
    58    58    59    1
    59    58    57    2
    60   164   163    1
    61   169   170    1
    62   161   162    1
    63   161   158    1
    64    92    91    1
    65    57    56    1
    66   159   158    1
    67   162   163    1
    68    85    84    2
    69    56    55    1
    70   158   157    1
    71    55    54    1
    72   170   171    1
    73    91    94    1
    74    91    90    1
    75     6     8    1
    76     6     5    1
    77    49    47   ar
    78    49    48   ar
    79    84    90   am
    80    84    83    1
    81    94    95    1
    82    47    45   ar
    83    48    46   ar
    84   171   172    1
    85     7     5    1
    86    54    51    1
    87    83    82    1
    88    83    86    1
    89     5     2    1
    90    88    86    1
    91    95    96   ar
    92    95    97   ar
    93    96    98   ar
    94     2     1    1
    95     2     3    1
    96    45    44   ar
    97    46    44   ar
    98    71    68    1
    99   172   173    1
   100    51    52    1
   101    51    50    1
   102    86    87    1
   103    53    52    2
   104    68    67    1
   105    68    69    1
   106    25    28    1
   107    25    24    1
   108    25    26    1
   109    52    61   am
   110    87    89    1
   111    28    29    1
   112    24    22   am
   113     4     3    2
   114    44    43    1
   115    22    21    1
   116    22    23    2
   117    21    20    1
   118    97    99   ar
   119    98   100   ar
   120     3     9   am
   121    50    41   am
   122    70    69    2
   123    75    74    2
   124    27    26    2
   125    61    62    1
   126    26    30   am
   127    99   100   ar
   128    41    42    2
   129    41    40    1
   130   100   101    1
   131     9    10    1
   132    43    40    1
   133    62    65    1
   134    62    63    1
   135    74    73    1
   136    30    31    1
   137    40    39    1
   138    65    66    1
   139    10    11    1
   140    10    13    1
   141    63    64    2
   142    39    32   am
   143    73    72    1
   144    73    76    1
   145    11    12    2
   146   180   182   ar
   147   180   179   ar
   148    32    31    1
   149    32    33    2
   150   182   183   ar
   151    31    34    1
   152    13    14    1
   153    38    36   am
   154    76    77    1
   155   179   178    1
   156   179   181   ar
   157   178   175    1
   158    15    14   ar
   159    15    17   ar
   160   183   181   ar
   161    14    16   ar
   162    34    35    1
   163    36    37    2
   164    36    35    1
   165   174   175    1
   166   175   176    1
   167    17    19   ar
   168    77    78   ar
   169    77    79   ar
   170    78    80   ar
   171    16    18   ar
   172   219   218    1
   173    19    18   ar
   174   176   177    2
   175    79    81   ar
   176   206   205    1
   177    80    81   ar
   178   207   205    1
   179   218   217   ar
   180   218   216   ar
   181   205   204    1
   182   191   189    1
   183   217   215   ar
   184   190   189    1
   185   216   214   ar
   186   184   185    1
   187   189   188    1
   188   204   201    1
   189   215   213   ar
   190   185   188    1
   191   185   186    1
   192   214   213   ar
   193   198   197    1
   194   201   200    1
   195   201   202    1
   196   213   212    1
   197   186   187    2
   198   202   203    2
   199   197   196    1
   200   197   199    1
   201   193   194    1
   202   193   192    1
   203   193   196    1
   204   194   195    2
   205   212   209    1
   206   208   209    1
   207   209   210    1
   208   210   211    2
