@<TRIPOS>MOLECULE
tmp/3cweA00.pdb
 115 111 0 0 0
SMALL
GASTEIGER

@<TRIPOS>ATOM
      1  N         31.1430   25.7770    2.0970 N.3    53  TYR53      -0.1227
      2  CA        30.1300   26.3380    1.1980 C.3    53  TYR53       0.1736
      3  C         30.0040   27.8370    1.4120 C.2    53  TYR53       0.2595
      4  O         29.8180   28.3010    2.5320 O.2    53  TYR53      -0.2718
      5  CB        28.7690   25.6910    1.4580 C.3    53  TYR53       0.0548
      6  CG        28.7910   24.1910    1.3320 C.ar   53  TYR53      -0.0200
      7  CD1       28.9510   23.5770    0.0900 C.ar   53  TYR53      -0.0009
      8  CD2       28.6520   23.3810    2.4700 C.ar   53  TYR53      -0.0009
      9  CE1       28.9640   22.1800   -0.0270 C.ar   53  TYR53       0.0417
     10  CE2       28.6550   21.9720    2.3730 C.ar   53  TYR53       0.0417
     11  CZ        28.8270   21.3820    1.1250 C.ar   53  TYR53       0.1957
     12  OH        28.8470   20.0060    1.0030 O.3    53  TYR53      -0.2866
     13  N         30.0910   28.5910    0.3230 N.am   54  ARG54      -0.1966
     14  CA        29.9440   30.0490    0.3730 C.3    54  ARG54       0.1729
     15  C         28.6490   30.4520    1.0720 C.2    54  ARG54       0.2616
     16  O         28.5890   31.4730    1.7770 O.2    54  ARG54      -0.2715
     17  CB        29.9720   30.6060   -1.0570 C.3    54  ARG54       0.0348
     18  CG        29.5620   32.0690   -1.2060 C.3    54  ARG54       0.0492
     19  CD        29.4760   32.4460   -2.6820 C.3    54  ARG54       0.2205
     20  NE        30.8050   32.4260   -3.2890 N.pl3  54  ARG54      -0.0865
     21  CZ        31.6360   33.4690   -3.3470 C.cat  54  ARG54       0.5346
     22  NH1       31.2840   34.6520   -2.8550 N.pl3  54  ARG54       0.1354
     23  NH2       32.8210   33.3240   -3.9090 N.pl3  54  ARG54       0.1354
     24  N         27.6120   29.6490    0.8610 N.am   55  ASP55      -0.1957
     25  CA        26.2740   30.0130    1.2940 C.3    55  ASP55       0.1840
     26  C         25.8790   29.4510    2.6560 C.2    55  ASP55       0.2621
     27  O         24.7400   29.6050    3.0730 O.2    55  ASP55      -0.2715
     28  CB        25.2510   29.6320    0.2220 C.3    55  ASP55       0.1450
     29  CG        25.3930   30.4770   -1.0330 C.2    55  ASP55       0.3671
     30  OD1       24.9440   31.6380   -1.0090 O.co2  55  ASP55      -0.2456
     31  OD2       25.9550   29.9930   -2.0410 O.co2  55  ASP55      -0.2456
     32  N         26.8110   28.7850    3.3410 N.am   56  VAL56      -0.1977
     33  CA        26.5270   28.3030    4.6920 C.3    56  VAL56       0.1596
     34  C         27.5700   28.8810    5.6340 C.2    56  VAL56       0.2287
     35  O         28.7600   28.5200    5.5700 O.2    56  VAL56      -0.2864
     36  CB        26.5240   26.7480    4.7850 C.3    56  VAL56       0.0276
     37  CG1       26.2710   26.3180    6.2420 C.3    56  VAL56       0.0022
     38  CG2       25.4640   26.1550    3.8500 C.3    56  VAL56       0.0022
     39  N         23.1610   12.9400    2.1090 N.3   183  ASP183     -0.1225
     40  CA        22.9680   14.3910    1.9500 C.3   183  ASP183      0.1805
     41  C         21.5100   14.6210    1.5610 C.2   183  ASP183      0.2597
     42  O         21.0280   14.0020    0.6060 O.2   183  ASP183     -0.2718
     43  CB        23.7860   14.9660    0.7820 C.3   183  ASP183      0.1424
     44  CG        25.2800   14.9160    0.9800 C.2   183  ASP183      0.3668
     45  OD1       25.7660   14.4010    2.0060 O.co2 183  ASP183     -0.2456
     46  OD2       25.9710   15.4000    0.0480 O.co2 183  ASP183     -0.2456
     47  N         20.8250   15.5300    2.2620 N.am  184  PHE184     -0.1976
     48  CA        19.4310   15.8780    1.9440 C.3   184  PHE184      0.1639
     49  C         18.4650   14.6870    2.0120 C.2   184  PHE184      0.2290
     50  O         17.3790   14.7280    1.4370 O.2   184  PHE184     -0.2864
     51  CB        19.3400   16.5820    0.5850 C.3   184  PHE184      0.0560
     52  CG        20.1950   17.8080    0.5030 C.ar  184  PHE184     -0.0200
     53  CD1       19.8840   18.9290    1.2620 C.ar  184  PHE184     -0.0042
     54  CD2       21.3430   17.8290   -0.2900 C.ar  184  PHE184     -0.0042
     55  CE1       20.6830   20.0630    1.2280 C.ar  184  PHE184     -0.0003
     56  CE2       22.1380   18.9590   -0.3530 C.ar  184  PHE184     -0.0003
     57  CZ        21.8190   20.0860    0.4090 C.ar  184  PHE184     -0.0000
     58  N         27.7760   17.4310    9.9390 N.3   217  CYS217     -0.1221
     59  CA        27.4570   16.6320    8.7630 C.3   217  CYS217      0.1808
     60  C         28.3440   17.2040    7.6650 C.2   217  CYS217      0.2602
     61  O         29.5570   17.3330    7.8920 O.2   217  CYS217     -0.2717
     62  CB        25.9420   16.6520    8.4790 C.3   217  CYS217      0.0970
     63  SG        25.1710   18.2820    8.6940 S.3   217  CYS217     -0.0800
     64  N         27.8100   17.5540    6.4940 N.am  218  SER218     -0.1938
     65  CA        28.6550   18.2110    5.5060 C.3   218  SER218      0.2055
     66  C         28.6230   19.7230    5.7050 C.2   218  SER218      0.2642
     67  O         29.6560   20.3460    5.9290 O.2   218  SER218     -0.2714
     68  CB        28.2670   17.8560    4.0720 C.3   218  SER218      0.2130
     69  OG        29.2120   18.4480    3.1830 O.3   218  SER218     -0.2179
     70  N         27.4350   20.3080    5.6100 N.am  219  ALA219     -0.1977
     71  CA        27.3140   21.7460    5.8290 C.3   219  ALA219      0.1597
     72  C         27.1090   22.0770    7.3000 C.2   219  ALA219      0.2287
     73  O         27.2890   23.2310    7.7020 O.2   219  ALA219     -0.2864
     74  CB        26.1750   22.3200    5.0180 C.3   219  ALA219      0.0319
     75  N         24.1350   21.7540    8.8460 N.3   221  ILE221     -0.1231
     76  CA        22.7980   22.3540    8.9860 C.3   221  ILE221      0.1692
     77  C         21.6330   21.3990    8.7940 C.2   221  ILE221      0.2593
     78  O         20.6780   21.4340    9.5720 O.2   221  ILE221     -0.2718
     79  CB        22.6370   23.6470    8.1270 C.3   221  ILE221      0.0266
     80  CG1       22.7640   23.3530    6.6250 C.3   221  ILE221      0.0019
     81  CG2       23.6650   24.6930    8.5500 C.3   221  ILE221      0.0020
     82  CD1       22.5140   24.5710    5.7410 C.3   221  ILE221      0.0001
     83  N         21.6880   20.5570    7.7670 N.am  222  GLY222     -0.1942
     84  CA        20.5390   19.7150    7.4590 C.3   222  GLY222      0.2014
     85  C         20.4050   18.5660    8.4380 C.2   222  GLY222      0.2638
     86  O         19.4770   18.5050    9.2670 O.2   222  GLY222     -0.2714
     87  N         21.3460   17.6430    8.3370 N.am  223  ARG223     -0.1977
     88  CA        21.3430   16.4820    9.2130 C.3   223  ARG223      0.1597
     89  C         21.6290   16.9000   10.6430 C.2   223  ARG223      0.2287
     90  O         20.9310   16.4750   11.5610 O.2   223  ARG223     -0.2864
     91  CB        22.3300   15.4320    8.6970 C.3   223  ARG223      0.0334
     92  CG        21.8390   14.8290    7.3860 C.3   223  ARG223      0.0492
     93  CD        22.9440   14.1020    6.6550 C.3   223  ARG223      0.2205
     94  NE        23.8390   15.0510    5.9950 N.pl3 223  ARG223     -0.0865
     95  CZ        24.7680   14.6940    5.1150 C.cat 223  ARG223      0.5346
     96  NH1       24.9540   13.3990    4.8250 N.pl3 223  ARG223      0.1354
     97  NH2       25.5350   15.6180    4.5600 N.pl3 223  ARG223      0.1354
     98  N         17.0370   20.8520    6.1720 N.3   264  GLN264     -0.1245
     99  CA        17.2280   21.2910    4.7860 C.3   264  GLN264      0.1566
    100  C         16.1740   20.8090    3.8010 C.2   264  GLN264      0.2260
    101  O         16.2030   21.1880    2.6320 O.2   264  GLN264     -0.2867
    102  CB        18.6410   20.9430    4.3000 C.3   264  GLN264      0.0367
    103  CG        19.6820   21.9420    4.7980 C.3   264  GLN264      0.0905
    104  CD        19.5970   23.2420    4.0180 C.2   264  GLN264      0.2608
    105  OE1       19.7970   23.2610    2.8000 O.2   264  GLN264     -0.2717
    106  NE2       19.2600   24.3270    4.7010 N.am  264  GLN264     -0.0878
    107  N         12.9290   16.0180    5.9410 N.3   268  GLN268     -0.1245
    108  CA        13.6490   16.0580    7.2150 C.3   268  GLN268      0.1566
    109  C         12.7700   16.6630    8.2990 C.2   268  GLN268      0.2260
    110  O         12.7770   16.2000    9.4400 O.2   268  GLN268     -0.2867
    111  CB        14.9510   16.8470    7.0770 C.3   268  GLN268      0.0367
    112  CG        16.0330   16.0420    6.3730 C.3   268  GLN268      0.0905
    113  CD        17.2750   16.8550    6.0750 C.2   268  GLN268      0.2608
    114  OE1       17.3310   18.0750    6.3200 O.2   268  GLN268     -0.2717
    115  NE2       18.2890   16.1830    5.5600 N.am  268  GLN268     -0.0878
@<TRIPOS>BOND
     1    23    21    1
     2    21    20    2
     3    21    22    1
     4    20    19    1
     5    19    18    1
     6    31    29   ar
     7    18    17    1
     8    17    14    1
     9    29    30   ar
    10    29    28    1
    11    56    54   ar
    12    56    57   ar
    13    54    52   ar
    14     9     7   ar
    15     9    11   ar
    16    46    44   ar
    17     7     6   ar
    18    28    25    1
    19    13    14    1
    20    13     3   am
    21    14    15    1
    22    57    55   ar
    23    52    51    1
    24    52    53   ar
    25    51    48    1
    26    42    41    2
    27    43    44    1
    28    43    40    1
    29    24    15   am
    30    24    25    1
    31    44    45   ar
    32    12    11    1
    33    15    16    2
    34    11    10   ar
    35     2     3    1
    36     2     5    1
    37     2     1    1
    38    55    53   ar
    39    25    26    1
    40     6     5    1
    41     6     8   ar
    42     3     4    2
    43    50    49    2
    44    41    40    1
    45    41    47   am
    46    48    49    1
    47    48    47    1
    48    40    39    1
    49    10     8   ar
    50   101   100    2
    51    26    27    2
    52    26    32   am
    53   105   104    2
    54    69    68    1
    55    32    33    1
    56   100    99    1
    57    38    36    1
    58   104   106   am
    59   104   103    1
    60    68    65    1
    61   102    99    1
    62   102   103    1
    63    97    95    1
    64    33    36    1
    65    33    34    1
    66    36    37    1
    67    99    98    1
    68    96    95    1
    69    74    71    1
    70    95    94    2
    71    65    66    1
    72    65    64    1
    73   115   113   am
    74    35    34    2
    75    70    66   am
    76    70    71    1
    77    66    67    2
    78    82    80    1
    79    71    72    1
    80   107   108    1
    81    94    93    1
    82   113   114    2
    83   113   112    1
    84   112   111    1
    85    64    60   am
    86    80    79    1
    87    93    92    1
    88   111   108    1
    89   108   109    1
    90    72    73    2
    91    92    91    1
    92    84    83    1
    93    84    85    1
    94    60    61    2
    95    60    59    1
    96    83    77   am
    97    79    81    1
    98    79    76    1
    99   109   110    2
   100    87    85   am
   101    87    88    1
   102    85    86    2
   103    62    63    1
   104    62    59    1
   105    91    88    1
   106    59    58    1
   107    77    76    1
   108    77    78    2
   109    75    76    1
   110    88    89    1
   111    89    90    2
