@<TRIPOS>MOLECULE
tmp/3cwjB00.pdb
 215 200 0 0 0
SMALL
GASTEIGER

@<TRIPOS>ATOM
      1  N         66.7600  -12.9010   41.5980 N.3   153  ARG153     -0.1245
      2  CA        65.7500  -12.2700   40.7460 C.3   153  ARG153      0.1563
      3  C         66.3910  -11.1520   39.9380 C.2   153  ARG153      0.2260
      4  O         67.4090  -10.5850   40.3430 O.2   153  ARG153     -0.2867
      5  CB        64.5730  -11.7300   41.5670 C.3   153  ARG153      0.0307
      6  CG        63.3190  -12.5840   41.4660 C.3   153  ARG153      0.0489
      7  CD        62.2880  -12.2960   42.5560 C.3   153  ARG153      0.2205
      8  NE        62.2660  -10.8940   42.9720 N.pl3 153  ARG153     -0.0865
      9  CZ        61.1820  -10.2470   43.3970 C.cat 153  ARG153      0.5346
     10  NH1       60.0010  -10.8610   43.4460 N.pl3 153  ARG153      0.1354
     11  NH2       61.2750   -8.9720   43.7640 N.pl3 153  ARG153      0.1354
     12  N         45.1290   -5.1070   46.6430 N.3   188  PHE188     -0.1241
     13  CA        45.9350   -4.0450   47.2510 C.3   188  PHE188      0.1605
     14  C         45.1260   -2.9420   47.9630 C.2   188  PHE188      0.2264
     15  O         45.7130   -2.0440   48.5610 O.2   188  PHE188     -0.2867
     16  CB        46.9320   -3.4590   46.2380 C.3   188  PHE188      0.0534
     17  CG        47.9900   -4.4430   45.7670 C.ar  188  PHE188     -0.0203
     18  CD1       48.9580   -4.9290   46.6430 C.ar  188  PHE188     -0.0042
     19  CD2       48.0320   -4.8520   44.4400 C.ar  188  PHE188     -0.0042
     20  CE1       49.9420   -5.8320   46.2060 C.ar  188  PHE188     -0.0003
     21  CE2       49.0160   -5.7470   43.9850 C.ar  188  PHE188     -0.0003
     22  CZ        49.9640   -6.2390   44.8740 C.ar  188  PHE188     -0.0000
     23  N         45.7610   -6.2000   56.1030 N.3   192  PRO192     -0.2116
     24  CA        45.7560   -7.6610   56.3490 C.3   192  PRO192      0.1372
     25  C         44.4590   -8.1680   56.9740 C.2   192  PRO192      0.2244
     26  O         43.9720   -9.2390   56.6090 O.2   192  PRO192     -0.2868
     27  CB        46.9290   -7.8670   57.3130 C.3   192  PRO192      0.0268
     28  CG        47.8150   -6.7010   57.0820 C.3   192  PRO192      0.0207
     29  CD        46.9130   -5.5420   56.7510 C.3   192  PRO192      0.0892
     30  N         41.8110   -8.0770   54.4310 N.3   195  ARG195     -0.1245
     31  CA        42.0710   -9.1780   53.5080 C.3   195  ARG195      0.1563
     32  C         41.4700  -10.4740   54.0550 C.2   195  ARG195      0.2260
     33  O         40.7790  -11.1960   53.3350 O.2   195  ARG195     -0.2867
     34  CB        43.5730   -9.3380   53.2150 C.3   195  ARG195      0.0307
     35  CG        43.8440  -10.4150   52.1910 C.3   195  ARG195      0.0489
     36  CD        45.3150  -10.7560   52.0690 C.3   195  ARG195      0.2205
     37  NE        45.5130  -11.9780   51.2890 N.pl3 195  ARG195     -0.0865
     38  CZ        45.5830  -12.0390   49.9580 C.cat 195  ARG195      0.5346
     39  NH1       45.4690  -10.9350   49.2190 N.pl3 195  ARG195      0.1354
     40  NH2       45.7610  -13.2220   49.3570 N.pl3 195  ARG195      0.1354
     41  N         56.0490  -12.4240   34.9800 N.3   220  ASP220     -0.1239
     42  CA        56.6250  -11.2950   34.2450 C.3   220  ASP220      0.1674
     43  C         57.0820  -11.7230   32.8640 C.2   220  ASP220      0.2266
     44  O         56.8760  -11.0080   31.8790 O.2   220  ASP220     -0.2867
     45  CB        57.7870  -10.6700   35.0210 C.3   220  ASP220      0.1410
     46  CG        57.3240   -9.6240   36.0300 C.2   220  ASP220      0.3668
     47  OD1       56.1030   -9.5160   36.2900 O.co2 220  ASP220     -0.2456
     48  OD2       58.1870   -8.8970   36.5610 O.co2 220  ASP220     -0.2456
     49  N         60.0790   -5.3690   35.4590 N.3   277  SER277     -0.1217
     50  CA        59.6460   -5.4620   36.8500 C.3   277  SER277      0.1889
     51  C         59.8700   -4.1710   37.6140 C.2   277  SER277      0.2288
     52  O         59.3730   -4.0200   38.7200 O.2   277  SER277     -0.2866
     53  CB        60.3340   -6.6220   37.5630 C.3   277  SER277      0.2089
     54  OG        61.6560   -6.2800   37.9160 O.3   277  SER277     -0.2183
     55  N         54.1050   -1.9230   36.7710 N.3   282  THR282     -0.1203
     56  CA        54.3660   -3.3590   36.9270 C.3   282  THR282      0.1994
     57  C         53.2290   -4.0400   37.6730 C.2   282  THR282      0.2618
     58  O         52.6800   -5.0450   37.2100 O.2   282  THR282     -0.2717
     59  CB        55.6990   -3.6430   37.6670 C.3   282  THR282      0.1784
     60  OG1       56.7870   -3.0690   36.9330 O.3   282  THR282     -0.2211
     61  CG2       55.9340   -5.1710   37.8390 C.3   282  THR282      0.0376
     62  N         52.8740   -3.4610   38.8170 N.am  283  SER283     -0.1951
     63  CA        51.9160   -4.0470   39.7440 C.3   283  SER283      0.1924
     64  C         50.5010   -4.0190   39.1660 C.2   283  SER283      0.2314
     65  O         49.8510   -5.0630   39.0440 O.2   283  SER283     -0.2863
     66  CB        52.0110   -3.3230   41.0900 C.3   283  SER283      0.2116
     67  OG        50.9070   -3.5780   41.9360 O.3   283  SER283     -0.2180
     68  N         50.3510   -6.1690   35.9660 N.3   286  ASN286     -0.1240
     69  CA        50.2880   -7.5910   36.3030 C.3   286  ASN286      0.1653
     70  C         48.9440   -8.0000   36.8730 C.2   286  ASN286      0.2266
     71  O         48.4120   -9.0410   36.4930 O.2   286  ASN286     -0.2867
     72  CB        51.4150   -7.9770   37.2580 C.3   286  ASN286      0.1155
     73  CG        52.7190   -8.2000   36.5480 C.2   286  ASN286      0.2627
     74  OD1       52.7890   -8.1510   35.3180 O.2   286  ASN286     -0.2716
     75  ND2       53.7690   -8.4450   37.3120 N.am  286  ASN286     -0.0877
     76  N         46.5790   -9.9990   43.5490 N.3   311  ASN311     -0.1225
     77  CA        47.6450   -9.0880   43.9390 C.3   311  ASN311      0.1785
     78  C         48.8030   -9.2160   42.9580 C.2   311  ASN311      0.2598
     79  O         49.7530   -9.9540   43.2080 O.2   311  ASN311     -0.2718
     80  CB        48.1450   -9.4040   45.3480 C.3   311  ASN311      0.1169
     81  CG        47.1570   -9.0270   46.4180 C.2   311  ASN311      0.2627
     82  OD1       46.0740   -9.5950   46.5090 O.2   311  ASN311     -0.2716
     83  ND2       47.5310   -8.0740   47.2470 N.am  311  ASN311     -0.0877
     84  N         48.7160   -8.5100   41.8360 N.am  312  GLY312     -0.1942
     85  CA        49.7560   -8.5710   40.8140 C.3   312  GLY312      0.2014
     86  C         49.7370   -9.9140   40.1320 C.2   312  GLY312      0.2639
     87  O         48.7460  -10.2850   39.5020 O.2   312  GLY312     -0.2714
     88  N         50.8300  -10.6520   40.2700 N.am  313  ASP313     -0.1957
     89  CA        50.9230  -11.9980   39.7080 C.3   313  ASP313      0.1840
     90  C         50.3980  -13.0870   40.6570 C.2   313  ASP313      0.2622
     91  O         50.4750  -14.2780   40.3500 O.2   313  ASP313     -0.2715
     92  CB        52.3580  -12.2910   39.2470 C.3   313  ASP313      0.1450
     93  CG        53.3910  -12.2220   40.3730 C.2   313  ASP313      0.3671
     94  OD1       53.2030  -11.4840   41.3570 O.co2 313  ASP313     -0.2456
     95  OD2       54.4270  -12.9100   40.2480 O.co2 313  ASP313     -0.2456
     96  N         49.8490  -12.6680   41.7980 N.am  314  ASP314     -0.1971
     97  CA        49.3870  -13.5940   42.8370 C.3   314  ASP314      0.1709
     98  C         47.8500  -13.7030   42.8110 C.2   314  ASP314      0.2293
     99  O         47.1390  -12.6890   42.8830 O.2   314  ASP314     -0.2864
    100  CB        49.9160  -13.1460   44.2090 C.3   314  ASP314      0.1436
    101  CG        49.8520  -14.2460   45.2680 C.2   314  ASP314      0.3671
    102  OD1       48.7450  -14.7700   45.5480 O.co2 314  ASP314     -0.2456
    103  OD2       50.9150  -14.5620   45.8510 O.co2 314  ASP314     -0.2456
    104  N         49.6740  -14.9240   48.5670 N.3   361  CYS361     -0.1235
    105  CA        50.6350  -13.8950   48.9940 C.3   361  CYS361      0.1677
    106  C         51.6340  -14.4540   50.0090 C.2   361  CYS361      0.2270
    107  O         52.0840  -13.7480   50.9240 O.2   361  CYS361     -0.2867
    108  CB        49.9310  -12.6370   49.5280 C.3   361  CYS361      0.0956
    109  SG        49.1320  -11.6500   48.2400 S.3   361  CYS361     -0.0801
    110  N         50.9300  -16.2960   52.2530 N.3   363  SER363     -0.1217
    111  CA        50.2490  -16.1780   53.5240 C.3   363  SER363      0.1889
    112  C         49.0110  -17.0550   53.5910 C.2   363  SER363      0.2288
    113  O         48.4940  -17.4850   52.5690 O.2   363  SER363     -0.2866
    114  CB        49.8400  -14.7200   53.7480 C.3   363  SER363      0.2089
    115  OG        50.9320  -13.8510   53.5160 O.3   363  SER363     -0.2183
    116  N         45.6400  -13.1670   59.7230 N.3   379  LEU379     -0.1245
    117  CA        46.5060  -13.6070   58.6340 C.3   379  LEU379      0.1561
    118  C         47.9260  -13.8890   59.1130 C.2   379  LEU379      0.2260
    119  O         48.5830  -13.0380   59.7260 O.2   379  LEU379     -0.2867
    120  CB        46.5380  -12.5560   57.5210 C.3   379  LEU379      0.0270
    121  CG        46.9510  -13.0060   56.1220 C.3   379  LEU379      0.0019
    122  CD1       45.8640  -13.8480   55.4580 C.3   379  LEU379      0.0001
    123  CD2       47.2480  -11.7790   55.2860 C.3   379  LEU379      0.0001
    124  N         51.7740  -16.4070   58.1860 N.3   381  ARG381     -0.1245
    125  CA        52.5770  -17.0250   57.1340 C.3   381  ARG381      0.1563
    126  C         53.7170  -17.8190   57.7410 C.2   381  ARG381      0.2260
    127  O         53.9710  -17.7520   58.9460 O.2   381  ARG381     -0.2867
    128  CB        53.1160  -15.9830   56.1390 C.3   381  ARG381      0.0307
    129  CG        54.1050  -14.9790   56.7110 C.3   381  ARG381      0.0489
    130  CD        54.9790  -14.3820   55.6080 C.3   381  ARG381      0.2205
    131  NE        56.0550  -15.2860   55.1980 N.pl3 381  ARG381     -0.0865
    132  CZ        56.7140  -15.2130   54.0440 C.cat 381  ARG381      0.5346
    133  NH1       56.4110  -14.2770   53.1510 N.pl3 381  ARG381      0.1354
    134  NH2       57.6730  -16.0870   53.7710 N.pl3 381  ARG381      0.1354
    135  N         62.9110   -5.3890   56.9070 N.3   402  SER402     -0.1217
    136  CA        61.8470   -6.3880   56.8030 C.3   402  SER402      0.1889
    137  C         61.1800   -6.6720   58.1420 C.2   402  SER402      0.2288
    138  O         59.9560   -6.7870   58.1930 O.2   402  SER402     -0.2866
    139  CB        62.3490   -7.6860   56.1680 C.3   402  SER402      0.2089
    140  OG        63.2800   -8.3180   57.0160 O.3   402  SER402     -0.2183
    141  N         58.4420   -4.0640   58.7420 N.3   405  GLY405     -0.1210
    142  CA        57.2780   -4.3020   57.8910 C.3   405  GLY405      0.1956
    143  C         56.5050   -5.5430   58.3120 C.2   405  GLY405      0.2611
    144  O         55.2640   -5.5490   58.2820 O.2   405  GLY405     -0.2717
    145  N         57.2360   -6.5950   58.6990 N.am  406  ASN406     -0.1974
    146  CA        56.6070   -7.8280   59.1820 C.3   406  ASN406      0.1688
    147  C         55.8410   -7.6590   60.4840 C.2   406  ASN406      0.2292
    148  O         54.8660   -8.3610   60.7030 O.2   406  ASN406     -0.2864
    149  CB        57.6140   -8.9680   59.3240 C.3   406  ASN406      0.1181
    150  CG        58.0360   -9.5320   57.9960 C.2   406  ASN406      0.2629
    151  OD1       57.2020   -9.8370   57.1540 O.2   406  ASN406     -0.2716
    152  ND2       59.3350   -9.6730   57.7990 N.am  406  ASN406     -0.0877
    153  N         52.4750   -5.8890   59.2550 N.3   409  MET409     -0.1230
    154  CA        51.5470   -6.7750   58.5570 C.3   409  MET409      0.1702
    155  C         51.1480   -7.9940   59.3830 C.2   409  MET409      0.2592
    156  O         50.0170   -8.4800   59.2520 O.2   409  MET409     -0.2718
    157  CB        52.1280   -7.2190   57.2050 C.3   409  MET409      0.0401
    158  CG        52.5430   -6.0610   56.3010 C.3   409  MET409      0.0596
    159  SD        51.2100   -4.9000   55.9230 S.3   409  MET409     -0.1393
    160  CE        50.4180   -5.7310   54.5500 C.3   409  MET409      0.0692
    161  N         52.0640   -8.4860   60.2210 N.am  410  TYR410     -0.1976
    162  CA        51.8250   -9.7180   60.9800 C.3   410  TYR410      0.1639
    163  C         51.8180   -9.5170   62.4920 C.2   410  TYR410      0.2290
    164  O         52.0050  -10.4710   63.2640 O.2   410  TYR410     -0.2864
    165  CB        52.8140  -10.8200   60.5750 C.3   410  TYR410      0.0560
    166  CG        52.6680  -11.2320   59.1380 C.ar  410  TYR410     -0.0198
    167  CD1       51.6500  -12.0980   58.7460 C.ar  410  TYR410     -0.0009
    168  CD2       53.5280  -10.7420   58.1660 C.ar  410  TYR410     -0.0009
    169  CE1       51.4930  -12.4640   57.4250 C.ar  410  TYR410      0.0417
    170  CE2       53.3850  -11.1050   56.8400 C.ar  410  TYR410      0.0417
    171  CZ        52.3650  -11.9640   56.4750 C.ar  410  TYR410      0.1957
    172  OH        52.2130  -12.3370   55.1620 O.3   410  TYR410     -0.2866
    173  N         58.9100   -1.3720   53.6270 N.3   441  GLN441     -0.1231
    174  CA        58.0360   -1.4850   52.4670 C.3   441  GLN441      0.1698
    175  C         56.6960   -2.0880   52.8450 C.2   441  GLN441      0.2592
    176  O         56.6360   -2.9990   53.6650 O.2   441  GLN441     -0.2718
    177  CB        58.6920   -2.3200   51.3780 C.3   441  GLN441      0.0381
    178  CG        59.5740   -1.5410   50.4190 C.3   441  GLN441      0.0905
    179  CD        60.0260   -2.3780   49.2280 C.2   441  GLN441      0.2608
    180  OE1       60.8500   -1.9380   48.4300 O.2   441  GLN441     -0.2717
    181  NE2       59.4850   -3.5910   49.1020 N.am  441  GLN441     -0.0878
    182  N         55.6270   -1.5580   52.2620 N.am  442  ILE442     -0.1966
    183  CA        54.3010   -2.1460   52.3870 C.3   442  ILE442      0.1727
    184  C         53.6250   -2.0980   51.0300 C.2   442  ILE442      0.2616
    185  O         53.3170   -1.0190   50.5220 O.2   442  ILE442     -0.2715
    186  CB        53.4200   -1.4170   53.4200 C.3   442  ILE442      0.0290
    187  CG1       54.0450   -1.4940   54.8190 C.3   442  ILE442      0.0022
    188  CG2       51.9990   -2.0170   53.4250 C.3   442  ILE442      0.0023
    189  CD1       53.8700   -0.2370   55.6460 C.3   442  ILE442      0.0001
    190  N         53.3920   -3.2770   50.4610 N.am  443  TYR443     -0.1960
    191  CA        52.8360   -3.4260   49.1110 C.3   443  TYR443      0.1771
    192  C         53.7020   -2.7730   48.0360 C.2   443  TYR443      0.2620
    193  O         53.1840   -2.1200   47.1360 O.2   443  TYR443     -0.2715
    194  CB        51.3880   -2.9170   49.0200 C.3   443  TYR443      0.0574
    195  CG        50.3330   -3.8050   49.6540 C.ar  443  TYR443     -0.0198
    196  CD1       50.5810   -5.1500   49.9410 C.ar  443  TYR443     -0.0009
    197  CD2       49.0680   -3.2990   49.9340 C.ar  443  TYR443     -0.0009
    198  CE1       49.5940   -5.9610   50.5250 C.ar  443  TYR443      0.0417
    199  CE2       48.0820   -4.0900   50.5020 C.ar  443  TYR443      0.0417
    200  CZ        48.3480   -5.4170   50.7960 C.ar  443  TYR443      0.1957
    201  OH        47.3500   -6.1820   51.3530 O.3   443  TYR443     -0.2866
    202  N         55.0180   -2.9550   48.1340 N.am  444  GLY444     -0.1954
    203  CA        55.9480   -2.4000   47.1550 C.3   444  GLY444      0.1869
    204  C         56.3350   -0.9440   47.3850 C.2   444  GLY444      0.2309
    205  O         57.3530   -0.4860   46.8600 O.2   444  GLY444     -0.2863
    206  N         49.2280   -1.3660   44.8240 N.3   549  GLY549     -0.1225
    207  CA        50.5470   -1.9840   44.8640 C.3   549  GLY549      0.1811
    208  C         51.4940   -1.2590   43.9250 C.2   549  GLY549      0.2280
    209  O         51.0890   -0.7870   42.8570 O.2   549  GLY549     -0.2866
    210  N         55.0760   -2.5000   43.5120 N.3   551  SER551     -0.1217
    211  CA        56.3080   -3.2960   43.4210 C.3   551  SER551      0.1889
    212  C         57.1240   -2.9090   42.1970 C.2   551  SER551      0.2288
    213  O         56.6070   -2.8870   41.0810 O.2   551  SER551     -0.2866
    214  CB        56.0030   -4.7990   43.3940 C.3   551  SER551      0.2089
    215  OG        57.1900   -5.5640   43.2290 O.3   551  SER551     -0.2183
@<TRIPOS>BOND
     1    44    43    2
     2    43    42    1
     3    42    41    1
     4    42    45    1
     5    45    46    1
     6    74    73    2
     7    49    50    1
     8    68    69    1
     9    46    47   ar
    10    46    48   ar
    11    69    70    1
    12    69    72    1
    13    71    70    2
    14    73    72    1
    15    73    75   am
    16    55    56    1
    17    50    53    1
    18    50    51    1
    19    56    59    1
    20    56    57    1
    21    60    59    1
    22    58    57    2
    23    53    54    1
    24    51    52    2
    25    59    61    1
    26    57    62   am
    27    62    63    1
    28    65    64    2
    29    64    63    1
    30    92    89    1
    31    92    93    1
    32    87    86    2
    33    89    88    1
    34    89    90    1
    35    63    66    1
    36     3     4    2
    37     3     2    1
    38    86    88   am
    39    86    85    1
    40    95    93   ar
    41    91    90    2
    42    93    94   ar
    43    90    96   am
    44     2     5    1
    45     2     1    1
    46    85    84    1
    47   213   212    2
    48    66    67    1
    49     6     5    1
    50     6     7    1
    51    96    97    1
    52    84    78   am
    53   212   211    1
    54     7     8    1
    55    98    97    1
    56    98    99    2
    57    97   100    1
    58   209   208    2
    59    78    79    2
    60    78    77    1
    61     8     9    2
    62   215   214    1
    63   214   211    1
    64     9    10    1
    65     9    11    1
    66   211   210    1
    67    76    77    1
    68   208   207    1
    69    77    80    1
    70    21    19   ar
    71    21    22   ar
    72   100   101    1
    73    19    17   ar
    74   206   207    1
    75    22    20   ar
    76   101   102   ar
    77   101   103   ar
    78    80    81    1
    79    17    16    1
    80    17    18   ar
    81    20    18   ar
    82    16    13    1
    83    81    82    2
    84    81    83   am
    85    12    13    1
    86   205   204    2
    87   193   192    2
    88   203   204    1
    89   203   202    1
    90    13    14    1
    91    14    15    2
    92   192   202   am
    93   192   191    1
    94   109   108    1
    95   180   179    2
    96   104   105    1
    97   105   108    1
    98   105   106    1
    99   194   191    1
   100   194   195    1
   101   181   179   am
   102   191   190    1
   103    39    38    1
   104   179   178    1
   105    40    38    1
   106   195   197   ar
   107   195   196   ar
   108   197   199   ar
   109   196   198   ar
   110    38    37    2
   111   106   107    2
   112   178   177    1
   113   190   184   am
   114   199   200   ar
   115   185   184    2
   116   198   200   ar
   117   200   201    1
   118   184   183    1
   119    37    36    1
   120   177   174    1
   121    36    35    1
   122    35    34    1
   123   110   111    1
   124   182   183    1
   125   182   175   am
   126   183   186    1
   127   174   175    1
   128   174   173    1
   129   113   112    2
   130   175   176    2
   131   133   132    1
   132    34    31    1
   133    33    32    2
   134   186   188    1
   135   186   187    1
   136    31    32    1
   137    31    30    1
   138   115   114    1
   139   111   112    1
   140   111   114    1
   141   134   132    1
   142   132   131    2
   143   160   159    1
   144   187   189    1
   145   172   171    1
   146   131   130    1
   147   123   121    1
   148   122   121    1
   149   130   129    1
   150   159   158    1
   151    23    24    1
   152    23    29    1
   153   121   120    1
   154   128   129    1
   155   128   125    1
   156   139   136    1
   157   139   140    1
   158   158   157    1
   159    24    25    1
   160    24    27    1
   161   171   170   ar
   162   171   169   ar
   163    26    25    2
   164    29    28    1
   165   136   135    1
   166   136   137    1
   167   170   168   ar
   168    28    27    1
   169   125   126    1
   170   125   124    1
   171   151   150    2
   172   157   154    1
   173   169   167   ar
   174   120   117    1
   175   126   127    2
   176   152   150   am
   177   142   143    1
   178   142   141    1
   179   150   149    1
   180   137   138    2
   181   168   166   ar
   182   144   143    2
   183   143   145   am
   184   154   153    1
   185   154   155    1
   186   117   118    1
   187   117   116    1
   188   145   146    1
   189   167   166   ar
   190   118   119    2
   191   166   165    1
   192   146   149    1
   193   146   147    1
   194   156   155    2
   195   155   161   am
   196   161   162    1
   197   147   148    2
   198   165   162    1
   199   162   163    1
   200   163   164    2
