@<TRIPOS>MOLECULE
tmp/3cwmA00.pdb
 124 120 0 0 0
SMALL
GASTEIGER

@<TRIPOS>ATOM
      1  N         -7.8100   10.2590   62.6330 N.3   171  TRP171     -0.1227
      2  CA        -8.2800   11.5850   62.2680 C.3   171  TRP171      0.1737
      3  C         -9.7780   11.5930   61.9450 C.2   171  TRP171      0.2595
      4  O        -10.2690   10.7140   61.2430 O.2   171  TRP171     -0.2718
      5  CB        -7.5130   12.1120   61.0450 C.3   171  TRP171      0.0564
      6  CG        -6.0070   12.2900   61.2150 C.ar  171  TRP171      0.0003
      7  CD1       -5.0220   11.7080   60.4590 C.ar  171  TRP171      0.0946
      8  CD2       -5.3300   13.1150   62.1810 C.ar  171  TRP171      0.0152
      9  NE1       -3.7830   12.1120   60.8940 N.ar  171  TRP171     -0.2442
     10  CE2       -3.9390   12.9750   61.9470 C.ar  171  TRP171      0.0810
     11  CE3       -5.7620   13.9590   63.2140 C.ar  171  TRP171      0.0012
     12  CZ2       -2.9780   13.6420   62.7150 C.ar  171  TRP171      0.0191
     13  CZ3       -4.8100   14.6220   63.9780 C.ar  171  TRP171      0.0001
     14  CH2       -3.4270   14.4640   63.7260 C.ar  171  TRP171      0.0015
     15  N        -10.5090   12.5920   62.4360 N.am  172  GLU172     -0.1965
     16  CA       -11.8700   12.8160   61.9510 C.3   172  GLU172      0.1733
     17  C        -11.8320   13.0950   60.4690 C.2   172  GLU172      0.2616
     18  O        -12.7100   12.6830   59.7350 O.2   172  GLU172     -0.2715
     19  CB       -12.5500   13.9860   62.6590 C.3   172  GLU172      0.0429
     20  CG       -12.7990   13.7750   64.1520 C.3   172  GLU172      0.1163
     21  CD       -14.0450   14.4990   64.6570 C.2   172  GLU172      0.3649
     22  OE1      -14.6220   15.2930   63.8830 O.co2 172  GLU172     -0.2457
     23  OE2      -14.4410   14.2570   65.8260 O.co2 172  GLU172     -0.2457
     24  N        -10.8110   13.8110   60.0210 N.am  173  ARG173     -0.1977
     25  CA       -10.7030   14.1290   58.6050 C.3   173  ARG173      0.1597
     26  C         -9.3500   13.6390   58.1070 C.2   173  ARG173      0.2287
     27  O         -8.3430   14.3500   58.1790 O.2   173  ARG173     -0.2864
     28  CB       -10.9810   15.6190   58.3670 C.3   173  ARG173      0.0334
     29  CG       -12.1440   16.0880   59.2230 C.3   173  ARG173      0.0492
     30  CD       -12.7820   17.3280   58.7350 C.3   173  ARG173      0.2205
     31  NE       -14.0020   17.6160   59.4930 N.pl3 173  ARG173     -0.0865
     32  CZ       -14.9510   18.4570   59.0990 C.cat 173  ARG173      0.5346
     33  NH1      -14.8350   19.1110   57.9420 N.pl3 173  ARG173      0.1354
     34  NH2      -16.0090   18.6420   59.8630 N.pl3 173  ARG173      0.1354
     35  N         -3.0000   16.8970   51.7930 N.3   200  ARG200     -0.1245
     36  CA        -4.4230   17.0340   51.4730 C.3   200  ARG200      0.1563
     37  C         -4.8160   18.4910   51.2230 C.2   200  ARG200      0.2260
     38  O         -4.4870   19.3840   52.0070 O.2   200  ARG200     -0.2867
     39  CB        -5.3220   16.4250   52.5610 C.3   200  ARG200      0.0307
     40  CG        -6.7960   16.4100   52.1530 C.3   200  ARG200      0.0489
     41  CD        -7.6530   15.5280   53.0100 C.3   200  ARG200      0.2205
     42  NE        -7.7930   16.0120   54.3880 N.pl3 200  ARG200     -0.0865
     43  CZ        -8.6680   16.9340   54.7830 C.cat 200  ARG200      0.5346
     44  NH1       -9.4800   17.5050   53.9090 N.pl3 200  ARG200      0.1354
     45  NH2       -8.7210   17.2880   56.0540 N.pl3 200  ARG200      0.1354
     46  N        -10.1560   22.0900   53.9200 N.3   203  MET203     -0.1230
     47  CA       -10.5040   23.1900   54.8270 C.3   203  MET203      0.1702
     48  C         -9.9840   22.8730   56.2230 C.2   203  MET203      0.2592
     49  O        -10.4320   21.9310   56.8800 O.2   203  MET203     -0.2718
     50  CB       -12.0270   23.3870   54.9200 C.3   203  MET203      0.0401
     51  CG       -12.7660   23.5700   53.5960 C.3   203  MET203      0.0596
     52  SD       -12.3970   25.1120   52.7590 S.3   203  MET203     -0.1393
     53  CE       -13.1910   26.2950   53.8300 C.3   203  MET203      0.0692
     54  N         -9.0410   23.6660   56.6960 N.am  204  PHE204     -0.1962
     55  CA        -8.4200   23.3300   57.9550 C.3   204  PHE204      0.1771
     56  C         -8.6050   24.4480   58.9260 C.2   204  PHE204      0.2619
     57  O         -8.8780   25.5920   58.5360 O.2   204  PHE204     -0.2715
     58  CB        -6.9350   23.0230   57.7780 C.3   204  PHE204      0.0574
     59  CG        -6.6580   21.8450   56.8920 C.ar  204  PHE204     -0.0200
     60  CD1       -6.5280   20.5690   57.4360 C.ar  204  PHE204     -0.0042
     61  CD2       -6.5400   22.0060   55.5010 C.ar  204  PHE204     -0.0042
     62  CE1       -6.2660   19.4650   56.6140 C.ar  204  PHE204     -0.0003
     63  CE2       -6.2660   20.9090   54.6600 C.ar  204  PHE204     -0.0003
     64  CZ        -6.1240   19.6480   55.2100 C.ar  204  PHE204     -0.0000
     65  N         -8.4990   24.0920   60.2000 N.am  205  ASN205     -0.1972
     66  CA        -8.3740   25.0540   61.2430 C.3   205  ASN205      0.1688
     67  C         -6.9020   25.4300   61.2800 C.2   205  ASN205      0.2292
     68  O         -6.1140   24.8290   62.0210 O.2   205  ASN205     -0.2864
     69  CB        -8.7910   24.4210   62.5420 C.3   205  ASN205      0.1181
     70  CG        -8.9470   25.4150   63.6410 C.2   205  ASN205      0.2629
     71  OD1       -9.7980   25.2430   64.4990 O.2   205  ASN205     -0.2716
     72  ND2       -8.1170   26.4630   63.6410 N.am  205  ASN205     -0.0877
     73  N         -4.8740   22.7870   64.0720 N.3   217  LEU217     -0.1231
     74  CA        -5.6060   21.8950   64.9650 C.3   217  LEU217      0.1693
     75  C         -6.3310   20.8720   64.1170 C.2   217  LEU217      0.2592
     76  O         -7.0690   21.2440   63.1930 O.2   217  LEU217     -0.2718
     77  CB        -6.6530   22.6570   65.7710 C.3   217  LEU217      0.0284
     78  CG        -6.2330   23.6280   66.8730 C.3   217  LEU217      0.0019
     79  CD1       -5.6440   24.9410   66.3230 C.3   217  LEU217      0.0001
     80  CD2       -7.4490   23.8860   67.7850 C.3   217  LEU217      0.0001
     81  N         -6.1240   19.5950   64.4170 N.am  218  MET218     -0.1965
     82  CA        -6.9100   18.5340   63.8000 C.3   218  MET218      0.1736
     83  C         -7.4320   17.6060   64.8860 C.2   218  MET218      0.2616
     84  O         -6.6850   17.2390   65.8090 O.2   218  MET218     -0.2715
     85  CB        -6.0890   17.7540   62.7720 C.3   218  MET218      0.0427
     86  CG        -5.5470   18.6060   61.6530 C.3   218  MET218      0.0599
     87  SD        -4.8860   17.6840   60.2590 S.3   218  MET218     -0.1393
     88  CE        -3.6880   16.6080   61.0360 C.3   218  MET218      0.0692
     89  N         -8.7030   17.2410   64.7750 N.am  219  LYS219     -0.1977
     90  CA        -9.3830   16.4400   65.7670 C.3   219  LYS219      0.1596
     91  C         -9.2000   14.9670   65.4940 C.2   219  LYS219      0.2287
     92  O         -9.1390   14.5350   64.3400 O.2   219  LYS219     -0.2864
     93  CB       -10.8650   16.7250   65.7400 C.3   219  LYS219      0.0298
     94  CG       -11.2690   18.1220   66.1280 C.3   219  LYS219      0.0038
     95  CD       -12.7750   18.2010   66.1630 C.3   219  LYS219      0.0206
     96  CE       -13.2650   19.6270   66.0700 C.3   219  LYS219      0.1093
     97  NZ       -14.7730   19.6250   66.2040 N.3   219  LYS219     -0.1314
     98  N         -7.6510   16.5240   70.4730 N.3   225  THR225     -0.1218
     99  CA        -7.2850   17.4380   69.3980 C.3   225  THR225      0.1862
    100  C         -5.7670   17.6180   69.3400 C.2   225  THR225      0.2287
    101  O         -5.0950   17.8740   70.3620 O.2   225  THR225     -0.2866
    102  CB        -7.9910   18.7980   69.5780 C.3   225  THR225      0.1770
    103  OG1       -9.4040   18.6050   69.5180 O.3   225  THR225     -0.2211
    104  CG2       -7.6110   19.7710   68.5000 C.3   225  THR225      0.0375
    105  N        -13.4620   27.5140   65.8950 N.3   255  GLU255     -0.1245
    106  CA       -13.5980   26.4690   64.9000 C.3   255  GLU255      0.1567
    107  C        -13.6890   26.9940   63.4780 C.2   255  GLU255      0.2260
    108  O        -14.0900   26.2570   62.5880 O.2   255  GLU255     -0.2867
    109  CB       -14.8010   25.5830   65.2250 C.3   255  GLU255      0.0388
    110  CG       -14.4310   24.3250   66.0100 C.3   255  GLU255      0.1160
    111  CD       -15.5000   23.9260   67.0040 C.2   255  GLU255      0.3649
    112  OE1      -16.7090   24.0880   66.7050 O.co2 255  GLU255     -0.2457
    113  OE2      -15.1250   23.4530   68.0970 O.co2 255  GLU255     -0.2457
    114  N        -12.6690   27.6580   59.8170 N.3   257  ARG257     -0.1245
    115  CA       -11.8900   26.8490   58.8950 C.3   257  ARG257      0.1563
    116  C        -11.5060   27.6680   57.6900 C.2   257  ARG257      0.2260
    117  O        -12.2750   28.5180   57.2410 O.2   257  ARG257     -0.2867
    118  CB       -12.6580   25.5990   58.4650 C.3   257  ARG257      0.0307
    119  CG       -12.5900   24.4660   59.4740 C.3   257  ARG257      0.0489
    120  CD       -13.2750   23.2090   58.9530 C.3   257  ARG257      0.2205
    121  NE       -13.5740   22.3040   60.0580 N.pl3 257  ARG257     -0.0865
    122  CZ       -12.8090   21.2690   60.4000 C.cat 257  ARG257      0.5346
    123  NH1      -11.7330   20.9850   59.6980 N.pl3 257  ARG257      0.1354
    124  NH2      -13.1390   20.5110   61.4380 N.pl3 257  ARG257      0.1354
@<TRIPOS>BOND
     1    37    36    1
     2    37    38    2
     3    36    35    1
     4    36    39    1
     5    40    39    1
     6    40    41    1
     7    52    51    1
     8    52    53    1
     9    41    42    1
    10    51    50    1
    11    44    43    1
    12    46    47    1
    13    42    43    2
    14    63    64   ar
    15    63    61   ar
    16    43    45    1
    17    47    50    1
    18    47    48    1
    19    64    62   ar
    20    61    59   ar
    21    48    54   am
    22    48    49    2
    23    62    60   ar
    24    54    55    1
    25    59    60   ar
    26    59    58    1
    27   117   116    2
    28   116   115    1
    29    58    55    1
    30    33    32    1
    31    55    56    1
    32    26    27    2
    33    26    25    1
    34    28    25    1
    35    28    29    1
    36   118   115    1
    37   118   119    1
    38    57    56    2
    39    25    24    1
    40    30    29    1
    41    30    31    1
    42   115   114    1
    43    56    65   am
    44   120   119    1
    45   120   121    1
    46    32    31    2
    47    32    34    1
    48   123   122    1
    49    18    17    2
    50    24    17   am
    51   121   122    2
    52    65    66    1
    53    87    88    1
    54    87    86    1
    55   122   124    1
    56     7     9   ar
    57     7     6   ar
    58    17    16    1
    59     9    10   ar
    60     5     6    1
    61     5     2    1
    62     6     8   ar
    63    66    67    1
    64    66    69    1
    65     4     3    2
    66    67    68    2
    67    86    85    1
    68     3     2    1
    69     3    15   am
    70    10     8   ar
    71    10    12   ar
    72    16    15    1
    73    16    19    1
    74     8    11   ar
    75     2     1    1
    76    69    70    1
    77   108   107    2
    78    19    20    1
    79    12    14   ar
    80    85    82    1
    81    76    75    2
    82    11    13   ar
    83   107   106    1
    84    72    70   am
    85    70    71    2
    86    14    13   ar
    87    82    81    1
    88    82    83    1
    89    22    21   ar
    90    73    74    1
    91    75    81   am
    92    75    74    1
    93    20    21    1
    94    92    91    2
    95    21    23   ar
    96    89    83   am
    97    89    90    1
    98    83    84    2
    99   106   109    1
   100   106   105    1
   101    74    77    1
   102   109   110    1
   103    91    90    1
   104    93    90    1
   105    93    94    1
   106    77    78    1
   107   110   111    1
   108    96    95    1
   109    96    97    1
   110    94    95    1
   111    79    78    1
   112   112   111   ar
   113    78    80    1
   114   111   113   ar
   115   104   102    1
   116   100    99    1
   117   100   101    2
   118    99   102    1
   119    99    98    1
   120   103   102    1
