@<TRIPOS>MOLECULE
tmp/3cwqA00.pdb
 186 181 0 0 0
SMALL
GASTEIGER

@<TRIPOS>ATOM
      1  N         58.7470   30.7470   67.9710 N.3     8  LYS8       -0.1231
      2  CA        57.9720   31.1340   69.1320 C.3     8  LYS8        0.1693
      3  C         58.7830   30.9170   70.4230 C.2     8  LYS8        0.2593
      4  O         59.7410   30.1300   70.4970 O.2     8  LYS8       -0.2718
      5  CB        56.5990   30.3850   69.1630 C.3     8  LYS8        0.0285
      6  CG        55.4090   31.3330   69.2130 C.3     8  LYS8        0.0035
      7  CD        54.0840   30.7370   69.6650 C.3     8  LYS8        0.0206
      8  CE        54.2550   29.4860   70.5670 C.3     8  LYS8        0.1093
      9  NZ        54.0970   29.5370   72.0720 N.3     8  LYS8       -0.1314
     10  N         58.4350   31.6550   71.4490 N.am    9  GLY9       -0.1942
     11  CA        59.1070   31.4510   72.7190 C.3     9  GLY9        0.2014
     12  C         58.4290   30.2610   73.3210 C.2     9  GLY9        0.2639
     13  O         57.2940   29.9960   72.9980 O.2     9  GLY9       -0.2714
     14  N         59.1170   29.5410   74.1940 N.am   10  GLY10      -0.1939
     15  CA        58.4970   28.5000   74.9860 C.3    10  GLY10       0.2014
     16  C         58.4190   27.1530   74.3100 C.2    10  GLY10       0.2639
     17  O         57.5950   26.2810   74.7150 O.2    10  GLY10      -0.2714
     18  N         59.3070   26.9580   73.3250 N.am   11  VAL11      -0.1963
     19  CA        59.4030   25.7140   72.6100 C.3    11  VAL11       0.1727
     20  C         60.6370   24.9190   72.9400 C.2    11  VAL11       0.2617
     21  O         60.8550   23.9240   72.2970 O.2    11  VAL11      -0.2715
     22  CB        59.3530   25.8950   71.0420 C.3    11  VAL11       0.0290
     23  CG1       58.0900   26.5160   70.6280 C.3    11  VAL11       0.0023
     24  CG2       60.4770   26.6710   70.5560 C.3    11  VAL11       0.0023
     25  N         61.4790   25.3270   73.8800 N.am   12  GLY12      -0.1940
     26  CA        62.6790   24.5170   74.2670 C.3    12  GLY12       0.2014
     27  C         63.9010   24.7710   73.3740 C.2    12  GLY12       0.2639
     28  O         64.9060   24.0530   73.4660 O.2    12  GLY12      -0.2714
     29  N         63.8420   25.7970   72.5310 N.am   13  LYS13      -0.1963
     30  CA        64.9920   26.2380   71.7750 C.3    13  LYS13       0.1728
     31  C         66.2400   26.3990   72.6400 C.2    13  LYS13       0.2617
     32  O         67.1760   25.6340   72.5490 O.2    13  LYS13      -0.2715
     33  CB        64.6480   27.5400   71.0340 C.3    13  LYS13       0.0311
     34  CG        65.8380   28.2430   70.2800 C.3    13  LYS13       0.0038
     35  CD        65.4230   29.6960   69.7990 C.3    13  LYS13       0.0206
     36  CE        64.9740   30.6790   71.0110 C.3    13  LYS13       0.1093
     37  NZ        65.9310   30.6450   72.1080 N.3    13  LYS13      -0.1314
     38  N         66.2920   27.4050   73.4650 N.am   14  THR14      -0.1937
     39  CA        67.4090   27.4860   74.3930 C.3    14  THR14       0.2028
     40  C         67.8520   26.1450   74.9910 C.2    14  THR14       0.2642
     41  O         69.0130   25.8270   74.9310 O.2    14  THR14      -0.2714
     42  CB        67.1720   28.5470   75.4660 C.3    14  THR14       0.1808
     43  OG1       67.3460   29.8610   74.8910 O.3    14  THR14      -0.2208
     44  CG2       68.2960   28.5190   76.4320 C.3    14  THR14       0.0379
     45  N         66.9170   25.3530   75.5180 N.am   15  THR15      -0.1950
     46  CA        67.1530   24.0310   76.1300 C.3    15  THR15       0.1897
     47  C         67.7880   23.0440   75.1190 C.2    15  THR15       0.2313
     48  O         68.6840   22.2130   75.4570 O.2    15  THR15      -0.2863
     49  CB        65.7710   23.4600   76.5490 C.3    15  THR15       0.1794
     50  OG1       65.1490   24.2760   77.5660 O.3    15  THR15      -0.2208
     51  CG2       65.8670   22.0200   77.1790 C.3    15  THR15       0.0378
     52  N         69.4380   35.2350   72.2640 N.3    36  ASP36      -0.1239
     53  CA        68.0560   35.2820   72.7000 C.3    36  ASP36       0.1674
     54  C         67.8870   36.4760   73.6050 C.2    36  ASP36       0.2266
     55  O         68.5000   36.5230   74.7100 O.2    36  ASP36      -0.2867
     56  CB        67.6870   34.0310   73.4770 C.3    36  ASP36       0.1410
     57  CG        66.1890   33.9760   73.8000 C.2    36  ASP36       0.3668
     58  OD1       65.6730   32.8670   74.0460 O.co2  36  ASP36      -0.2456
     59  OD2       65.4010   34.9720   73.8140 O.co2  36  ASP36      -0.2456
     60  N         66.1560   37.0920   75.9910 N.3    38  ASN38      -0.1240
     61  CA        66.0380   36.8330   77.4310 C.3    38  ASN38       0.1653
     62  C         67.3970   36.4040   78.0170 C.2    38  ASN38       0.2266
     63  O         67.5230   36.3700   79.2710 O.2    38  ASN38      -0.2867
     64  CB        64.9380   35.8060   77.8000 C.3    38  ASN38       0.1155
     65  CG        65.1410   34.3790   77.1400 C.2    38  ASN38       0.2627
     66  OD1       66.3000   33.9440   76.7660 O.2    38  ASN38      -0.2716
     67  ND2       64.0010   33.6410   77.0050 N.am   38  ASN38      -0.0877
     68  N         68.6060   33.7060   78.4700 N.3    40  SER40      -0.1217
     69  CA        68.3430   32.6290   79.4100 C.3    40  SER40       0.1889
     70  C         69.5300   31.6760   79.3980 C.2    40  SER40       0.2288
     71  O         69.8320   30.9990   80.4310 O.2    40  SER40      -0.2866
     72  CB        66.9950   31.9490   79.0710 C.3    40  SER40       0.2089
     73  OG        67.0920   30.7970   78.2290 O.3    40  SER40      -0.2183
     74  N         71.5770   30.3160   82.2670 N.3    44  TRP44      -0.1241
     75  CA        71.7350   28.9040   82.5630 C.3    44  TRP44       0.1605
     76  C         73.2030   28.6030   82.9460 C.2    44  TRP44       0.2264
     77  O         73.4690   27.8520   83.9360 O.2    44  TRP44      -0.2867
     78  CB        71.3410   28.1020   81.3770 C.3    44  TRP44       0.0550
     79  CG        71.1040   26.6870   81.6360 C.ar   44  TRP44       0.0003
     80  CD1       71.7900   25.8360   82.5070 C.ar   44  TRP44       0.0946
     81  CD2       70.1370   25.8800   80.9660 C.ar   44  TRP44       0.0152
     82  NE1       71.2580   24.5710   82.4210 N.ar   44  TRP44      -0.2442
     83  CE2       70.2430   24.5740   81.4860 C.ar   44  TRP44       0.0810
     84  CE3       69.1480   26.1430   80.0090 C.ar   44  TRP44       0.0012
     85  CZ2       69.4090   23.5400   81.0500 C.ar   44  TRP44       0.0191
     86  CZ3       68.3300   25.1120   79.5710 C.ar   44  TRP44       0.0001
     87  CH2       68.4640   23.8470   80.0700 C.ar   44  TRP44       0.0015
     88  N         59.5870   19.1070   70.1340 N.3   126  THR126     -0.1203
     89  CA        60.0620   19.1240   71.5550 C.3   126  THR126      0.1994
     90  C         58.9950   19.2140   72.6140 C.2   126  THR126      0.2617
     91  O         57.9630   19.7870   72.3980 O.2   126  THR126     -0.2717
     92  CB        60.8910   20.2980   71.8110 C.3   126  THR126      0.1784
     93  OG1       59.9840   21.4000   71.8260 O.3   126  THR126     -0.2211
     94  CG2       61.8470   20.5550   70.6230 C.3   126  THR126      0.0376
     95  N         59.2920   18.7500   73.8030 N.am  127  ILE127     -0.1979
     96  CA        58.3280   18.7650   74.9050 C.3   127  ILE127      0.1595
     97  C         57.0520   18.0350   74.4890 C.2   127  ILE127      0.2287
     98  O         55.9590   18.4900   74.7980 O.2   127  ILE127     -0.2864
     99  CB        57.9980   20.2340   75.3590 C.3   127  ILE127      0.0276
    100  CG1       59.1420   21.1640   75.1020 C.3   127  ILE127      0.0022
    101  CG2       57.6810   20.2700   76.8660 C.3   127  ILE127      0.0022
    102  CD1       58.7240   22.5920   75.3130 C.3   127  ILE127      0.0001
    103  N         61.9190   15.3520   71.5610 N.3   155  ILE155     -0.1231
    104  CA        62.1930   15.4330   72.9920 C.3   155  ILE155      0.1692
    105  C         60.9360   15.2500   73.8340 C.2   155  ILE155      0.2592
    106  O         59.9410   15.9160   73.5660 O.2   155  ILE155     -0.2718
    107  CB        62.8240   16.7600   73.3370 C.3   155  ILE155      0.0266
    108  CG1       63.9490   17.0880   72.3560 C.3   155  ILE155      0.0019
    109  CG2       63.3450   16.6520   74.7140 C.3   155  ILE155      0.0020
    110  CD1       65.0330   15.9280   72.1330 C.3   155  ILE155      0.0001
    111  N         60.9330   14.3580   74.8220 N.am  156  LYS156     -0.1966
    112  CA        59.6970   14.2130   75.6280 C.3   156  LYS156      0.1728
    113  C         59.6010   15.2810   76.7120 C.2   156  LYS156      0.2619
    114  O         60.5960   15.8720   77.0790 O.2   156  LYS156     -0.2715
    115  CB        59.5270   12.8000   76.2190 C.3   156  LYS156      0.0311
    116  CG        59.5600   11.5790   75.2300 C.3   156  LYS156      0.0038
    117  CD        58.7480   11.7240   73.8760 C.3   156  LYS156      0.0206
    118  CE        58.0950   10.3440   73.4340 C.3   156  LYS156      0.1093
    119  NZ        57.1060    9.7500   74.4570 N.3   156  LYS156     -0.1314
    120  N         58.4090   15.5710   77.2180 N.am  157  ARG157     -0.1918
    121  CA        58.3620   16.4840   78.3630 C.3   157  ARG157      0.1945
    122  C         58.8130   15.6890   79.5730 C.2   157  ARG157      0.2659
    123  O         58.1860   14.6920   79.9210 O.2   157  ARG157     -0.2711
    124  CB        56.9720   17.0500   78.5630 C.2   157  ARG157      0.0033
    125  CG        56.8110   18.0070   79.7910 C.2   157  ARG157      0.0179
    126  CD        55.3900   18.6020   79.9770 C.3   157  ARG157      0.2464
    127  NE        54.3330   17.5940   79.8070 N.pl3 157  ARG157     -0.0815
    128  CZ        53.7520   16.8610   80.8120 C.cat 157  ARG157      0.5349
    129  NH1       52.7720   15.9690   80.5320 N.pl3 157  ARG157      0.1354
    130  NH2       54.1460   17.0070   82.0970 N.pl3 157  ARG157      0.1354
    131  N         59.9410   16.0660   80.1700 N.am  158  TYR158     -0.1957
    132  CA        60.3660   15.4430   81.4440 C.3   158  TYR158      0.1771
    133  C         60.5560   16.5840   82.3260 C.2   158  TYR158      0.2620
    134  O         61.1760   17.5570   81.9450 O.2   158  TYR158     -0.2715
    135  CB        61.6920   14.6950   81.3380 C.3   158  TYR158      0.0574
    136  CG        61.5660   13.4700   80.4850 C.ar  158  TYR158     -0.0198
    137  CD1       62.2080   13.3870   79.2440 C.ar  158  TYR158     -0.0009
    138  CD2       60.7250   12.3910   80.9040 C.ar  158  TYR158     -0.0009
    139  CE1       62.0340   12.2370   78.4270 C.ar  158  TYR158      0.0417
    140  CE2       60.5610   11.2300   80.1150 C.ar  158  TYR158      0.0417
    141  CZ        61.2160   11.1670   78.8780 C.ar  158  TYR158      0.1957
    142  OH        61.0460   10.0290   78.1270 O.3   158  TYR158     -0.2866
    143  N         59.9890   16.4590   83.5060 N.am  159  SER159     -0.1950
    144  CA        60.1180   17.4780   84.5020 C.3   159  SER159      0.1924
    145  C         61.6250   17.7740   84.7080 C.2   159  SER159      0.2314
    146  O         62.0020   18.9290   84.8980 O.2   159  SER159     -0.2863
    147  CB        59.3980   17.0300   85.7940 C.3   159  SER159      0.2116
    148  OG        58.9790   18.1700   86.5300 O.3   159  SER159     -0.2180
    149  N         64.1120   18.3400   82.7030 N.3   161  PHE161     -0.1227
    150  CA        64.6390   19.4450   81.9260 C.3   161  PHE161      0.1736
    151  C         64.5950   20.7400   82.6800 C.2   161  PHE161      0.2595
    152  O         65.4390   21.6100   82.5310 O.2   161  PHE161     -0.2718
    153  CB        63.9740   19.5620   80.5100 C.3   161  PHE161      0.0547
    154  CG        64.5410   18.5900   79.5190 C.ar  161  PHE161     -0.0202
    155  CD1       65.9140   18.5570   79.2730 C.ar  161  PHE161     -0.0042
    156  CD2       63.7430   17.6470   78.9110 C.ar  161  PHE161     -0.0042
    157  CE1       66.4780   17.6150   78.4190 C.ar  161  PHE161     -0.0003
    158  CE2       64.2980   16.7110   78.0040 C.ar  161  PHE161     -0.0003
    159  CZ        65.6720   16.6940   77.7730 C.ar  161  PHE161     -0.0000
    160  N         63.6140   20.8380   83.5410 N.am  162  GLN162     -0.1979
    161  CA        63.4130   22.0230   84.3310 C.3   162  GLN162      0.1601
    162  C         64.4290   22.1710   85.4420 C.2   162  GLN162      0.2287
    163  O         64.9450   23.2820   85.6770 O.2   162  GLN162     -0.2864
    164  CB        62.0340   21.9410   84.9560 C.3   162  GLN162      0.0394
    165  CG        61.3200   23.2330   84.8560 C.3   162  GLN162      0.0908
    166  CD        59.9410   23.0650   84.2590 C.2   162  GLN162      0.2608
    167  OE1       59.7710   22.7120   83.0460 O.2   162  GLN162     -0.2717
    168  NE2       58.9340   23.3370   85.0940 N.am  162  GLN162     -0.0878
    169  N         67.5510   23.3230   84.2480 N.3   165  SER165     -0.1217
    170  CA        67.5120   24.7860   84.2160 C.3   165  SER165      0.1889
    171  C         67.8270   25.4750   85.6170 C.2   165  SER165      0.2288
    172  O         68.8340   26.2180   85.7920 O.2   165  SER165     -0.2866
    173  CB        66.1440   25.1900   83.6620 C.3   165  SER165      0.2089
    174  OG        66.2900   26.3270   82.8830 O.3   165  SER165     -0.2183
    175  N         68.5380   13.8190   73.7480 N.3   186  TYR186     -0.1241
    176  CA        69.4340   14.7860   73.1100 C.3   186  TYR186      0.1605
    177  C         70.5860   14.1160   72.4070 C.2   186  TYR186      0.2264
    178  O         70.9060   14.5340   71.3430 O.2   186  TYR186     -0.2867
    179  CB        69.8340   15.9260   74.0640 C.3   186  TYR186      0.0534
    180  CG        68.7600   17.0200   73.9800 C.ar  186  TYR186     -0.0201
    181  CD1       68.5490   17.7270   72.7460 C.ar  186  TYR186     -0.0009
    182  CD2       67.8870   17.3000   75.1030 C.ar  186  TYR186     -0.0009
    183  CE1       67.5550   18.7220   72.6710 C.ar  186  TYR186      0.0417
    184  CE2       66.8780   18.2590   75.0600 C.ar  186  TYR186      0.0417
    185  CZ        66.6950   18.9930   73.8510 C.ar  186  TYR186      0.1957
    186  OH        65.6650   19.9720   73.7800 O.3   186  TYR186     -0.2866
@<TRIPOS>BOND
     1     1     2    1
     2     2     5    1
     3     2     3    1
     4     5     6    1
     5     6     7    1
     6     7     8    1
     7    35    34    1
     8    35    36    1
     9    88    89    1
    10    34    33    1
    11     3     4    2
    12     3    10   am
    13    24    22    1
    14     8     9    1
    15    94    92    1
    16    23    22    1
    17    36    37    1
    18    33    30    1
    19    22    19    1
    20   178   177    2
    21    10    11    1
    22    89    92    1
    23    89    90    1
    24   103   104    1
    25    30    29    1
    26    30    31    1
    27    92    93    1
    28   110   108    1
    29    52    53    1
    30    21    20    2
    31   108   107    1
    32    91    90    2
    33   177   176    1
    34    29    27   am
    35    32    31    2
    36    19    20    1
    37    19    18    1
    38    90    95   am
    39    31    38   am
    40   183   181   ar
    41   183   185   ar
    42    53    56    1
    43    53    54    1
    44    11    12    1
    45   181   180   ar
    46    20    25   am
    47   104   107    1
    48   104   105    1
    49    13    12    2
    50   176   175    1
    51   176   179    1
    52    12    14   am
    53    18    16   am
    54   107   109    1
    55    27    28    2
    56    27    26    1
    57   118   117    1
    58   118   119    1
    59    38    39    1
    60    56    57    1
    61   106   105    2
    62    54    55    2
    63   186   185    1
    64    57    59   ar
    65    57    58   ar
    66    95    96    1
    67   105   111   am
    68   185   184   ar
    69   117   116    1
    70    25    26    1
    71   180   179    1
    72   180   182   ar
    73    14    15    1
    74    16    17    2
    75    16    15    1
    76    39    40    1
    77    39    42    1
    78    97    98    2
    79    97    96    1
    80   111   112    1
    81    43    42    1
    82    96    99    1
    83    41    40    2
    84    40    45   am
    85   184   182   ar
    86   100   102    1
    87   100    99    1
    88    47    48    2
    89    47    46    1
    90   116   115    1
    91    99   101    1
    92    42    44    1
    93    45    46    1
    94   112   115    1
    95   112   113    1
    96    60    61    1
    97    46    49    1
    98    49    51    1
    99    49    50    1
   100   113   114    2
   101   113   120   am
   102    66    65    2
   103    67    65   am
   104    65    64    1
   105   120   121    1
   106    61    64    1
   107    61    62    1
   108   159   158   ar
   109   159   157   ar
   110   158   156   ar
   111    62    63    2
   112   142   141    1
   113    73    72    1
   114   121   124    1
   115   121   122    1
   116   157   155   ar
   117   139   141   ar
   118   139   137   ar
   119    68    69    1
   120   124   125    2
   121   141   140   ar
   122   156   154   ar
   123    72    69    1
   124   137   136   ar
   125   155   154   ar
   126    70    69    1
   127    70    71    2
   128   154   153    1
   129    86    84   ar
   130    86    87   ar
   131   122   123    2
   132   122   131   am
   133   125   126    1
   134   127   126    1
   135   127   128    2
   136    84    81   ar
   137    87    85   ar
   138   140   138   ar
   139   131   132    1
   140   136   138   ar
   141   136   135    1
   142   153   150    1
   143   129   128    1
   144   128   130    1
   145    81    83   ar
   146    81    79   ar
   147    85    83   ar
   148   135   132    1
   149    78    79    1
   150    78    75    1
   151   132   133    1
   152    83    82   ar
   153    79    80   ar
   154   150   151    1
   155   150   149    1
   156   134   133    2
   157    74    75    1
   158   133   143   am
   159    82    80   ar
   160   152   151    2
   161    75    76    1
   162   151   160   am
   163   174   173    1
   164    76    77    2
   165   167   166    2
   166   143   144    1
   167   160   161    1
   168   173   170    1
   169   170   169    1
   170   170   171    1
   171   166   165    1
   172   166   168   am
   173   161   164    1
   174   161   162    1
   175   144   145    1
   176   144   147    1
   177   145   146    2
   178   165   164    1
   179   162   163    2
   180   171   172    2
   181   147   148    1
