@<TRIPOS>MOLECULE
tmp/3cwwA00.pdb
 106 101 0 0 0
SMALL
GASTEIGER

@<TRIPOS>ATOM
      1  N       -108.7880   77.9510  -11.5840 N.3   290  HIS290     -0.1241
      2  CA      -109.3170   77.0310  -10.5600 C.3   290  HIS290      0.1621
      3  C       -110.7270   76.5680  -10.9350 C.2   290  HIS290      0.2264
      4  O       -111.0780   75.4020  -10.7740 O.2   290  HIS290     -0.2867
      5  CB      -109.2880   77.7180   -9.1830 C.3   290  HIS290      0.0745
      6  CG      -110.1420   77.0630   -8.1360 C.ar  290  HIS290      0.0817
      7  ND1     -111.0490   77.7680   -7.3670 N.ar  290  HIS290     -0.2268
      8  CD2     -110.2100   75.7770   -7.7120 C.ar  290  HIS290      0.1154
      9  CE1     -111.6440   76.9410   -6.5220 C.ar  290  HIS290      0.1986
     10  NE2     -111.1570   75.7260   -6.7140 N.ar  290  HIS290     -0.2212
     11  N       -110.0010   74.0320  -13.6100 N.3   293  GLY293     -0.1210
     12  CA      -109.4040   72.8670  -12.9810 C.3   293  GLY293      0.1956
     13  C       -110.4360   72.0500  -12.2160 C.2   293  GLY293      0.2611
     14  O       -110.4460   70.8090  -12.2460 O.2   293  GLY293     -0.2717
     15  N       -111.3110   72.7470  -11.5030 N.am  294  HIS294     -0.1975
     16  CA      -112.4060   72.0880  -10.7890 C.3   294  HIS294      0.1656
     17  C       -113.2450   71.2080  -11.7280 C.2   294  HIS294      0.2291
     18  O       -113.5970   70.0700  -11.3820 O.2   294  HIS294     -0.2864
     19  CB      -113.2950   73.1600  -10.1290 C.3   294  HIS294      0.0771
     20  CG      -114.6170   72.6490   -9.6500 C.ar  294  HIS294      0.0820
     21  ND1     -114.7500   71.8770   -8.5160 N.ar  294  HIS294     -0.2267
     22  CD2     -115.8680   72.8140  -10.1430 C.ar  294  HIS294      0.1154
     23  CE1     -116.0260   71.5810   -8.3380 C.ar  294  HIS294      0.1986
     24  NE2     -116.7260   72.1380   -9.3100 N.ar  294  HIS294     -0.2212
     25  N       -110.8140   68.5720  -13.8310 N.3   297  GLY297     -0.1225
     26  CA      -110.3080   67.5870  -12.8870 C.3   297  GLY297      0.1811
     27  C       -111.3740   66.8850  -12.0420 C.2   297  GLY297      0.2280
     28  O       -111.0310   66.1130  -11.1520 O.2   297  GLY297     -0.2866
     29  N       -114.1690   64.3430  -10.5570 N.3   299  GLU299     -0.1245
     30  CA      -114.1780   62.8730  -10.5470 C.3   299  GLU299      0.1567
     31  C       -115.5850   62.2890  -10.3440 C.2   299  GLU299      0.2260
     32  O       -115.7620   61.0700  -10.1820 O.2   299  GLU299     -0.2867
     33  CB      -113.1670   62.3380   -9.5080 C.3   299  GLU299      0.0388
     34  CG      -111.7380   62.8830   -9.7080 C.3   299  GLU299      0.1160
     35  CD      -110.6980   62.2100   -8.7900 C.2   299  GLU299      0.3649
     36  OE1     -111.0500   61.2140   -8.1170 O.co2 299  GLU299     -0.2457
     37  OE2     -109.5320   62.6780   -8.7480 O.co2 299  GLU299     -0.2457
     38  N       -106.5720   61.0650  -12.3700 N.3   317  LEU317     -0.1231
     39  CA      -106.4110   62.2310  -13.2110 C.3   317  LEU317      0.1693
     40  C       -106.1890   63.4520  -12.3320 C.2   317  LEU317      0.2592
     41  O       -106.8500   63.6230  -11.3060 O.2   317  LEU317     -0.2718
     42  CB      -107.6670   62.4400  -14.0720 C.3   317  LEU317      0.0284
     43  CG      -107.6180   63.6190  -15.0600 C.3   317  LEU317      0.0019
     44  CD1     -108.4400   63.3280  -16.3110 C.3   317  LEU317      0.0001
     45  CD2     -108.0830   64.9210  -14.4110 C.3   317  LEU317      0.0001
     46  N       -105.2590   64.2970  -12.7420 N.am  318  VAL318     -0.1966
     47  CA      -105.0550   65.5980  -12.1170 C.3   318  VAL318      0.1727
     48  C       -105.1890   66.6400  -13.2140 C.2   318  VAL318      0.2617
     49  O       -104.5560   66.5160  -14.2690 O.2   318  VAL318     -0.2715
     50  CB      -103.6240   65.7050  -11.5150 C.3   318  VAL318      0.0290
     51  CG1     -103.3890   67.0960  -10.8910 C.3   318  VAL318      0.0023
     52  CG2     -103.3950   64.6050  -10.4850 C.3   318  VAL318      0.0023
     53  N       -106.0070   67.6610  -12.9830 N.am  319  GLY319     -0.1940
     54  CA      -106.1810   68.7020  -13.9730 C.3   319  GLY319      0.2014
     55  C       -106.2750   70.0880  -13.3730 C.2   319  GLY319      0.2639
     56  O       -106.8460   70.2700  -12.2980 O.2   319  GLY319     -0.2714
     57  N       -105.7040   71.0720  -14.0600 N.am  320  GLY320     -0.1939
     58  CA      -105.8800   72.4540  -13.6530 C.3   320  GLY320      0.2014
     59  C       -104.6520   73.3120  -13.8530 C.2   320  GLY320      0.2639
     60  O       -103.7400   72.9580  -14.6020 O.2   320  GLY320     -0.2714
     61  N       -104.6160   74.4510  -13.1810 N.am  321  GLN321     -0.1963
     62  CA      -103.5310   75.3890  -13.4560 C.3   321  GLN321      0.1733
     63  C       -102.2980   75.0360  -12.6410 C.2   321  GLN321      0.2616
     64  O       -102.3940   74.4540  -11.5580 O.2   321  GLN321     -0.2715
     65  CB      -103.9660   76.8350  -13.1880 C.3   321  GLN321      0.0408
     66  CG      -104.1910   77.1400  -11.7410 C.3   321  GLN321      0.0908
     67  CD      -104.9310   78.4540  -11.5430 C.2   321  GLN321      0.2608
     68  OE1     -104.8520   79.3610  -12.3710 O.2   321  GLN321     -0.2717
     69  NE2     -105.6580   78.5570  -10.4320 N.am  321  GLN321     -0.0878
     70  N       -101.1400   75.4110  -13.1660 N.am  322  LYS322     -0.1977
     71  CA       -99.8740   75.0660  -12.5490 C.3   322  LYS322      0.1596
     72  C        -98.9710   76.2940  -12.6190 C.2   322  LYS322      0.2287
     73  O        -98.8280   76.9200  -13.6780 O.2   322  LYS322     -0.2864
     74  CB       -99.2660   73.8540  -13.2910 C.3   322  LYS322      0.0298
     75  CG       -97.8100   73.5590  -12.9780 C.3   322  LYS322      0.0038
     76  CD       -97.3800   72.2620  -13.6650 C.3   322  LYS322      0.0206
     77  CE       -95.9790   72.3460  -14.2450 C.3   322  LYS322      0.1093
     78  NZ       -95.5260   71.0020  -14.7130 N.3   322  LYS322     -0.1314
     79  N       -102.5720   71.8900  -17.0750 N.3   332  ILE332     -0.1245
     80  CA      -102.2030   70.4880  -17.2690 C.3   332  ILE332      0.1561
     81  C       -103.3800   69.5570  -17.1160 C.2   332  ILE332      0.2260
     82  O       -104.3490   69.8670  -16.4280 O.2   332  ILE332     -0.2867
     83  CB      -101.1340   70.0100  -16.2480 C.3   332  ILE332      0.0252
     84  CG1     -101.7250   70.0090  -14.8220 C.3   332  ILE332      0.0019
     85  CG2      -99.8660   70.8630  -16.3470 C.3   332  ILE332      0.0019
     86  CD1     -100.8320   69.4200  -13.7800 C.3   332  ILE332      0.0001
     87  N       -116.2080   61.7680   -4.0110 N.3   567  TYR567     -0.1241
     88  CA      -115.4550   62.9300   -4.4680 C.3   567  TYR567      0.1605
     89  C       -116.1970   64.2110   -4.0900 C.2   567  TYR567      0.2264
     90  O       -115.5800   65.2010   -3.6740 O.2   567  TYR567     -0.2867
     91  CB      -115.1930   62.8750   -5.9810 C.3   567  TYR567      0.0534
     92  CG      -114.3160   64.0120   -6.4730 C.ar  567  TYR567     -0.0201
     93  CD1     -112.9360   64.0160   -6.2230 C.ar  567  TYR567     -0.0009
     94  CD2     -114.8590   65.0820   -7.1790 C.ar  567  TYR567     -0.0009
     95  CE1     -112.1290   65.0510   -6.6640 C.ar  567  TYR567      0.0417
     96  CE2     -114.0560   66.1260   -7.6150 C.ar  567  TYR567      0.0417
     97  CZ      -112.6930   66.0990   -7.3500 C.ar  567  TYR567      0.1957
     98  OH      -111.8830   67.1260   -7.7790 O.3   567  TYR567     -0.2866
     99  N       -114.6000   67.3930   -1.7930 N.3   571  LEU571     -0.1245
    100  CA      -114.7140   68.8270   -2.1230 C.3   571  LEU571      0.1561
    101  C       -115.4140   69.6350   -1.0290 C.2   571  LEU571      0.2260
    102  O       -115.1020   70.8080   -0.8150 O.2   571  LEU571     -0.2867
    103  CB      -115.4860   69.0140   -3.4340 C.3   571  LEU571      0.0270
    104  CG      -114.8800   68.4550   -4.7230 C.3   571  LEU571      0.0019
    105  CD1     -115.8560   68.6740   -5.8620 C.3   571  LEU571      0.0001
    106  CD2     -113.5380   69.1300   -5.0210 C.3   571  LEU571      0.0001
@<TRIPOS>BOND
     1    80    81    1
     2    80    79    1
     3    80    83    1
     4    81    82    2
     5    85    83    1
     6    44    43    1
     7    83    84    1
     8    43    45    1
     9    43    42    1
    10    84    86    1
    11    78    77    1
    12    60    59    2
    13    49    48    2
    14    77    76    1
    15    42    39    1
    16    57    58    1
    17    57    55   am
    18    54    55    1
    19    54    53    1
    20    59    58    1
    21    59    61   am
    22    25    26    1
    23    73    72    2
    24    76    75    1
    25    11    12    1
    26    62    65    1
    27    62    61    1
    28    62    63    1
    29    55    56    2
    30    74    75    1
    31    74    71    1
    32    48    53   am
    33    48    47    1
    34    39    38    1
    35    39    40    1
    36    65    66    1
    37    70    63   am
    38    70    71    1
    39    12    13    1
    40    26    27    1
    41    46    40   am
    42    46    47    1
    43    63    64    2
    44    72    71    1
    45    68    67    2
    46    40    41    2
    47    14    13    2
    48    13    15   am
    49    47    50    1
    50    27    28    2
    51    66    67    1
    52    17    18    2
    53    17    16    1
    54     1     2    1
    55    67    69   am
    56    50    51    1
    57    50    52    1
    58    15    16    1
    59     3     4    2
    60     3     2    1
    61    16    19    1
    62     2     5    1
    63    29    30    1
    64    30    31    1
    65    30    33    1
    66    31    32    2
    67    22    20   ar
    68    22    24   ar
    69    19    20    1
    70    34    33    1
    71    34    35    1
    72    20    21   ar
    73    24    23   ar
    74     5     6    1
    75    35    37   ar
    76    35    36   ar
    77    21    23   ar
    78     6     8   ar
    79     6     7   ar
    80    98    97    1
    81     8    10   ar
    82    96    97   ar
    83    96    94   ar
    84     7     9   ar
    85    97    95   ar
    86    94    92   ar
    87    10     9   ar
    88    95    93   ar
    89    92    93   ar
    90    92    91    1
    91    91    88    1
    92   105   104    1
    93   106   104    1
    94   104   103    1
    95    88    89    1
    96    88    87    1
    97    89    90    2
    98   103   100    1
    99   100    99    1
   100   100   101    1
   101   101   102    2
