@<TRIPOS>MOLECULE
tmp/3cx4A10.pdb
 116 109 0 0 0
SMALL
GASTEIGER

@<TRIPOS>ATOM
      1  N          1.7230  -56.0710  -31.6830 N.3   397  ARG397     -0.1245
      2  CA         2.9880  -56.7410  -31.9400 C.3   397  ARG397      0.1563
      3  C          3.3740  -56.6990  -33.4280 C.2   397  ARG397      0.2260
      4  O          3.1020  -57.6410  -34.1860 O.2   397  ARG397     -0.2867
      5  CB         2.9440  -58.1790  -31.4410 C.3   397  ARG397      0.0307
      6  CG         4.3210  -58.8280  -31.2660 C.3   397  ARG397      0.0489
      7  CD         4.2180  -60.2590  -30.7160 C.3   397  ARG397      0.2205
      8  NE         3.5380  -61.1320  -31.6670 N.pl3 397  ARG397     -0.0865
      9  CZ         4.1400  -61.9670  -32.5080 C.cat 397  ARG397      0.5346
     10  NH1        5.4590  -62.0760  -32.5240 N.pl3 397  ARG397      0.1354
     11  NH2        3.4110  -62.6940  -33.3410 N.pl3 397  ARG397      0.1354
     12  N          7.6090  -51.9220  -32.6360 N.3   401  LEU401     -0.1231
     13  CA         6.8270  -52.1920  -31.4290 C.3   401  LEU401      0.1693
     14  C          7.1210  -53.5920  -30.8760 C.2   401  LEU401      0.2592
     15  O          7.2270  -53.7750  -29.6700 O.2   401  LEU401     -0.2718
     16  CB         5.3280  -52.0420  -31.7060 C.3   401  LEU401      0.0284
     17  CG         4.9050  -50.6850  -32.3010 C.3   401  LEU401      0.0019
     18  CD1        3.3740  -50.5630  -32.3750 C.3   401  LEU401      0.0001
     19  CD2        5.5400  -49.4940  -31.5230 C.3   401  LEU401      0.0001
     20  N          7.2680  -54.5580  -31.7710 N.am  402  ALA402     -0.1966
     21  CA         7.5850  -55.9440  -31.4070 C.3   402  ALA402      0.1728
     22  C          9.0290  -56.0700  -30.9080 C.2   402  ALA402      0.2616
     23  O          9.3410  -56.9250  -30.0840 O.2   402  ALA402     -0.2715
     24  CB         7.3400  -56.8840  -32.5980 C.3   402  ALA402      0.0334
     25  N          9.9180  -55.2080  -31.3900 N.am  403  ASP403     -0.1957
     26  CA        11.3020  -55.2750  -30.9300 C.3   403  ASP403      0.1840
     27  C         11.4910  -54.6490  -29.5590 C.2   403  ASP403      0.2623
     28  O         12.4950  -54.8890  -28.9080 O.2   403  ASP403     -0.2715
     29  CB        12.2290  -54.5560  -31.9030 C.3   403  ASP403      0.1450
     30  CG        12.3600  -55.2810  -33.2260 C.2   403  ASP403      0.3671
     31  OD1       12.4830  -56.5340  -33.2260 O.co2 403  ASP403     -0.2456
     32  OD2       12.3530  -54.5980  -34.2680 O.co2 403  ASP403     -0.2456
     33  N         10.5580  -53.8170  -29.1230 N.am  404  THR404     -0.1937
     34  CA        10.9150  -52.9160  -28.0540 C.3   404  THR404      0.2028
     35  C         10.0650  -53.0140  -26.8040 C.2   404  THR404      0.2642
     36  O         10.5000  -52.5770  -25.7470 O.2   404  THR404     -0.2714
     37  CB        10.9750  -51.4460  -28.5450 C.3   404  THR404      0.1808
     38  OG1        9.7090  -51.0710  -29.1120 O.3   404  THR404     -0.2208
     39  CG2       12.0680  -51.2800  -29.5840 C.3   404  THR404      0.0379
     40  N          8.8750  -53.6000  -26.9120 N.am  405  VAL405     -0.1963
     41  CA         7.9830  -53.7340  -25.7660 C.3   405  VAL405      0.1727
     42  C          7.8050  -55.2010  -25.3410 C.2   405  VAL405      0.2617
     43  O          7.6390  -56.0600  -26.1880 O.2   405  VAL405     -0.2715
     44  CB         6.5800  -53.1330  -26.0660 C.3   405  VAL405      0.0290
     45  CG1        5.6520  -53.3110  -24.8480 C.3   405  VAL405      0.0023
     46  CG2        6.6920  -51.6670  -26.4500 C.3   405  VAL405      0.0023
     47  N          7.8410  -55.4790  -24.0350 N.am  406  SER406     -0.1936
     48  CA         7.5340  -56.8190  -23.5410 C.3   406  SER406      0.2055
     49  C          6.2350  -56.8590  -22.7460 C.2   406  SER406      0.2643
     50  O          6.0730  -56.1600  -21.7440 O.2   406  SER406     -0.2714
     51  CB         8.6720  -57.3880  -22.7170 C.3   406  SER406      0.2130
     52  OG         9.8430  -57.3830  -23.5020 O.3   406  SER406     -0.2179
     53  N          5.3230  -57.7030  -23.2150 N.am  407  ASP407     -0.1971
     54  CA         4.0140  -57.8760  -22.6210 C.3   407  ASP407      0.1709
     55  C          4.1340  -58.3370  -21.1990 C.2   407  ASP407      0.2293
     56  O          5.0880  -59.0260  -20.8300 O.2   407  ASP407     -0.2864
     57  CB         3.2220  -58.9090  -23.4140 C.3   407  ASP407      0.1436
     58  CG         1.7480  -58.9300  -23.0400 C.2   407  ASP407      0.3671
     59  OD1        1.1720  -57.8600  -22.7470 O.co2 407  ASP407     -0.2456
     60  OD2        1.1640  -60.0260  -23.0430 O.co2 407  ASP407     -0.2456
     61  N          3.1950  -60.7950  -19.6220 N.3   409  SER409     -0.1217
     62  CA         2.8320  -62.1810  -19.5330 C.3   409  SER409      0.1889
     63  C          3.4340  -62.7070  -18.2320 C.2   409  SER409      0.2288
     64  O          4.3050  -62.0520  -17.6440 O.2   409  SER409     -0.2866
     65  CB         3.4180  -62.9220  -20.7180 C.3   409  SER409      0.2089
     66  OG         4.8240  -62.7220  -20.7910 O.3   409  SER409     -0.2183
     67  N          5.5600  -65.2260  -17.8500 N.3   411  GLU411     -0.1231
     68  CA         7.0250  -65.4120  -17.9950 C.3   411  GLU411      0.1699
     69  C          7.7600  -64.0840  -17.8780 C.2   411  GLU411      0.2592
     70  O          8.8010  -64.0010  -17.2500 O.2   411  GLU411     -0.2718
     71  CB         7.4700  -65.9860  -19.3490 C.3   411  GLU411      0.0402
     72  CG         6.5190  -66.7800  -20.1050 C.3   411  GLU411      0.1161
     73  CD         5.5270  -65.9580  -20.8770 C.2   411  GLU411      0.3649
     74  OE1        5.7780  -65.6200  -22.0540 O.co2 411  GLU411     -0.2457
     75  OE2        4.4600  -65.7060  -20.3010 O.co2 411  GLU411     -0.2457
     76  N          7.2550  -63.0660  -18.5600 N.am  412  ASN412     -0.1974
     77  CA         7.9450  -61.7830  -18.5910 C.3   412  ASN412      0.1688
     78  C          7.9400  -61.1240  -17.2060 C.2   412  ASN412      0.2292
     79  O          8.9010  -60.4840  -16.8150 O.2   412  ASN412     -0.2864
     80  CB         7.3470  -60.8730  -19.6520 C.3   412  ASN412      0.1181
     81  CG         7.6520  -61.3410  -21.0470 C.2   412  ASN412      0.2629
     82  OD1        8.4520  -62.2370  -21.2370 O.2   412  ASN412     -0.2716
     83  ND2        7.0130  -60.7370  -22.0400 N.am  412  ASN412     -0.0877
     84  N         11.1210  -58.8020  -16.9770 N.3   417  VAL417     -0.1245
     85  CA        11.3440  -58.2610  -18.3180 C.3   417  VAL417      0.1561
     86  C         10.0860  -57.5340  -18.8860 C.2   417  VAL417      0.2260
     87  O         10.1400  -56.8130  -19.8950 O.2   417  VAL417     -0.2867
     88  CB        11.8290  -59.4300  -19.1920 C.3   417  VAL417      0.0252
     89  CG1       10.9930  -59.6310  -20.3940 C.3   417  VAL417      0.0019
     90  CG2       13.3430  -59.3330  -19.5040 C.3   417  VAL417      0.0019
     91  N          0.7550  -55.8980  -24.9050 N.3   422  VAL422     -0.1245
     92  CA         0.8360  -56.1960  -26.3090 C.3   422  VAL422      0.1561
     93  C         -0.3960  -56.9620  -26.7530 C.2   422  VAL422      0.2260
     94  O         -0.8430  -57.8720  -26.0540 O.2   422  VAL422     -0.2867
     95  CB         2.1030  -57.0190  -26.6320 C.3   422  VAL422      0.0252
     96  CG1        2.2200  -57.2480  -28.1390 C.3   422  VAL422      0.0019
     97  CG2        3.3610  -56.3110  -26.1020 C.3   422  VAL422      0.0019
     98  N         14.7660  -49.6970  -19.6690 N.3   458  MET458     -0.1245
     99  CA        15.0800  -49.9690  -21.0710 C.3   458  MET458      0.1570
    100  C         15.8830  -48.8040  -21.6620 C.2   458  MET458      0.2261
    101  O         15.5920  -47.6270  -21.3930 O.2   458  MET458     -0.2867
    102  CB        13.7940  -50.2380  -21.8680 C.3   458  MET458      0.0387
    103  CG        13.0270  -51.4850  -21.4030 C.3   458  MET458      0.0595
    104  SD        14.0660  -52.9650  -21.4910 S.3   458  MET458     -0.1393
    105  CE        14.2400  -53.1320  -23.2600 C.3   458  MET458      0.0692
    106  N         17.6860  -46.9990  -25.1010 N.3   460  PHE460     -0.1241
    107  CA        17.7190  -46.8480  -26.5480 C.3   460  PHE460      0.1605
    108  C         18.6720  -45.7240  -26.8970 C.2   460  PHE460      0.2264
    109  O         18.3220  -44.5420  -26.9200 O.2   460  PHE460     -0.2867
    110  CB        16.3080  -46.5930  -27.0680 C.3   460  PHE460      0.0534
    111  CG        15.3450  -47.6790  -26.6770 C.ar  460  PHE460     -0.0203
    112  CD1       14.4840  -47.5050  -25.6030 C.ar  460  PHE460     -0.0042
    113  CD2       15.3440  -48.8880  -27.3500 C.ar  460  PHE460     -0.0042
    114  CE1       13.6150  -48.5060  -25.2170 C.ar  460  PHE460     -0.0003
    115  CE2       14.4810  -49.9060  -26.9710 C.ar  460  PHE460     -0.0003
    116  CZ        13.6090  -49.7120  -25.9020 C.ar  460  PHE460     -0.0000
@<TRIPOS>BOND
     1    32    30   ar
     2     4     3    2
     3     3     2    1
     4    11     9    1
     5    31    30   ar
     6    30    29    1
     7    12    13    1
     8    24    21    1
     9    10     9    1
    10     9     8    2
    11    18    17    1
    12    17    16    1
    13    17    19    1
    14     2     1    1
    15     2     5    1
    16    29    26    1
    17    20    21    1
    18    20    14   am
    19    16    13    1
    20     8     7    1
    21     5     6    1
    22    13    14    1
    23    21    22    1
    24    25    26    1
    25    25    22   am
    26     6     7    1
    27    26    27    1
    28    22    23    2
    29    14    15    2
    30    39    37    1
    31    27    33   am
    32    27    28    2
    33    33    34    1
    34    38    37    1
    35    37    34    1
    36    96    95    1
    37    34    35    1
    38   113   115   ar
    39   113   111   ar
    40   110   111    1
    41   110   107    1
    42   115   116   ar
    43   109   108    2
    44    40    35   am
    45    40    41    1
    46   108   107    1
    47    35    36    2
    48    93    92    1
    49    93    94    2
    50   111   112   ar
    51    95    92    1
    52    95    97    1
    53   107   106    1
    54    46    44    1
    55    92    91    1
    56    43    42    2
    57    44    41    1
    58    44    45    1
    59   116   114   ar
    60    41    42    1
    61   112   114   ar
    62    42    47   am
    63    47    48    1
    64    48    49    1
    65    48    51    1
    66    52    51    1
    67    57    58    1
    68    57    54    1
    69   105   104    1
    70    53    49   am
    71    53    54    1
    72    60    58   ar
    73    58    59   ar
    74    49    50    2
    75    54    55    1
    76    74    73   ar
    77    83    81   am
    78   102   103    1
    79   102    99    1
    80   100   101    2
    81   100    99    1
    82   104   103    1
    83    82    81    2
    84    55    56    2
    85    99    98    1
    86    81    80    1
    87    73    75   ar
    88    73    72    1
    89    66    65    1
    90    65    62    1
    91    89    88    1
    92    72    71    1
    93    87    86    2
    94    80    77    1
    95    61    62    1
    96    62    63    1
    97    90    88    1
    98    71    68    1
    99    88    85    1
   100    86    85    1
   101    77    76    1
   102    77    78    1
   103    76    69   am
   104    85    84    1
   105    63    64    2
   106    68    69    1
   107    68    67    1
   108    69    70    2
   109    78    79    2
