@<TRIPOS>MOLECULE
tmp/3cx4A09.pdb
 148 139 0 0 0
SMALL
GASTEIGER

@<TRIPOS>ATOM
      1  N          8.5450  -38.7640  -36.6740 N.3    18  GLY18      -0.1210
      2  CA         9.7290  -39.3960  -36.1040 C.3    18  GLY18       0.1956
      3  C         11.0440  -39.1770  -36.8230 C.2    18  GLY18       0.2611
      4  O         12.1190  -39.1750  -36.1950 O.2    18  GLY18      -0.2717
      5  N         10.9640  -39.0310  -38.1400 N.am   19  LEU19      -0.1979
      6  CA        12.1250  -38.8230  -38.9960 C.3    19  LEU19       0.1596
      7  C         12.9940  -37.6650  -38.5070 C.2    19  LEU19       0.2287
      8  O         14.2500  -37.7690  -38.4470 O.2    19  LEU19      -0.2864
      9  CB        11.6480  -38.4890  -40.4150 C.3    19  LEU19       0.0297
     10  CG        12.4870  -38.8180  -41.6420 C.3    19  LEU19       0.0022
     11  CD1       12.1730  -37.8430  -42.7680 C.3    19  LEU19       0.0001
     12  CD2       14.0130  -38.9550  -41.3910 C.3    19  LEU19       0.0001
     13  N         15.0870  -38.4770  -35.5310 N.3    22  VAL22      -0.1245
     14  CA        16.2830  -39.2350  -35.9320 C.3    22  VAL22       0.1561
     15  C         17.3790  -38.3030  -36.4290 C.2    22  VAL22       0.2260
     16  O         18.5070  -38.3270  -35.9390 O.2    22  VAL22      -0.2867
     17  CB        15.9280  -40.2790  -37.0060 C.3    22  VAL22       0.0252
     18  CG1       17.1850  -40.9710  -37.5770 C.3    22  VAL22       0.0019
     19  CG2       14.9390  -41.2990  -36.4230 C.3    22  VAL22       0.0019
     20  N         12.3770  -45.3130  -43.4710 N.3   161  HIS161     -0.1226
     21  CA        11.6610  -44.9760  -42.2580 C.3   161  HIS161      0.1752
     22  C         10.2110  -45.3400  -42.4530 C.2   161  HIS161      0.2596
     23  O          9.4850  -45.5050  -41.4840 O.2   161  HIS161     -0.2718
     24  CB        11.7990  -43.4830  -41.9440 C.3   161  HIS161      0.0759
     25  CG        13.2120  -43.0660  -41.7040 C.ar  161  HIS161      0.0818
     26  ND1       13.7030  -42.8020  -40.4440 N.ar  161  HIS161     -0.2268
     27  CD2       14.2580  -42.9310  -42.5520 C.ar  161  HIS161      0.1154
     28  CE1       14.9810  -42.4820  -40.5330 C.ar  161  HIS161      0.1986
     29  NE2       15.3460  -42.5720  -41.7970 N.ar  161  HIS161     -0.2212
     30  N          9.7960  -45.4550  -43.7090 N.am  162  ASN162     -0.1974
     31  CA         8.4360  -45.8670  -44.0110 C.3   162  ASN162      0.1688
     32  C          8.2430  -46.3560  -45.4330 C.2   162  ASN162      0.2292
     33  O          8.3930  -45.5930  -46.3880 O.2   162  ASN162     -0.2864
     34  CB         7.4470  -44.7410  -43.7510 C.3   162  ASN162      0.1181
     35  CG         6.0490  -45.2630  -43.5570 C.2   162  ASN162      0.2629
     36  OD1        5.5220  -45.9660  -44.4110 O.2   162  ASN162     -0.2716
     37  ND2        5.4620  -44.9680  -42.4150 N.am  162  ASN162     -0.0877
     38  N         14.4480  -49.1560  -39.9570 N.3   211  VAL211     -0.1245
     39  CA        14.6790  -48.5410  -38.6550 C.3   211  VAL211      0.1561
     40  C         14.4100  -49.4520  -37.4530 C.2   211  VAL211      0.2260
     41  O         14.4730  -49.0250  -36.3050 O.2   211  VAL211     -0.2867
     42  CB        13.9900  -47.1480  -38.5460 C.3   211  VAL211      0.0252
     43  CG1       14.7930  -46.1170  -39.3470 C.3   211  VAL211      0.0019
     44  CG2       12.5330  -47.2000  -39.0290 C.3   211  VAL211      0.0019
     45  N         16.3230  -47.4540  -33.9250 N.3   246  ASN246     -0.1240
     46  CA        16.4820  -46.0560  -33.5160 C.3   246  ASN246      0.1653
     47  C         16.7570  -45.9300  -32.0130 C.2   246  ASN246      0.2266
     48  O         16.3760  -46.8110  -31.2380 O.2   246  ASN246     -0.2867
     49  CB        15.2040  -45.2570  -33.7830 C.3   246  ASN246      0.1155
     50  CG        14.9310  -45.0010  -35.2700 C.2   246  ASN246      0.2627
     51  OD1       13.7770  -44.7500  -35.6340 O.2   246  ASN246     -0.2716
     52  ND2       15.9600  -45.0550  -36.1200 N.am  246  ASN246     -0.0877
     53  N          0.2110  -38.8650  -35.3180 N.3   300  ARG300     -0.1245
     54  CA        -0.3240  -38.4690  -36.6340 C.3   300  ARG300      0.1563
     55  C         -1.5560  -39.3270  -36.8510 C.2   300  ARG300      0.2260
     56  O         -1.5410  -40.5190  -36.5750 O.2   300  ARG300     -0.2867
     57  CB         0.6830  -38.6940  -37.7840 C.3   300  ARG300      0.0307
     58  CG         1.9300  -37.7640  -37.7640 C.3   300  ARG300      0.0489
     59  CD         2.9610  -38.0500  -38.9020 C.3   300  ARG300      0.2205
     60  NE         3.3360  -39.4680  -39.0110 N.pl3 300  ARG300     -0.0865
     61  CZ         3.1040  -40.2330  -40.0840 C.cat 300  ARG300      0.5346
     62  NH1        2.5120  -39.7170  -41.1610 N.pl3 300  ARG300      0.1354
     63  NH2        3.4820  -41.5110  -40.0940 N.pl3 300  ARG300      0.1354
     64  N         -2.1520  -46.0770  -40.9640 N.3   304  GLN304     -0.1231
     65  CA        -1.0610  -46.7820  -40.3320 C.3   304  GLN304      0.1698
     66  C         -1.2210  -46.9780  -38.8090 C.2   304  GLN304      0.2592
     67  O         -0.7640  -47.9900  -38.2660 O.2   304  GLN304     -0.2718
     68  CB         0.2550  -46.0400  -40.6270 C.3   304  GLN304      0.0381
     69  CG         1.4420  -46.6320  -39.9020 C.3   304  GLN304      0.0905
     70  CD         2.6930  -45.7880  -39.9760 C.2   304  GLN304      0.2608
     71  OE1        2.8110  -44.8950  -40.8200 O.2   304  GLN304     -0.2717
     72  NE2        3.6490  -46.0740  -39.0800 N.am  304  GLN304     -0.0878
     73  N         -1.8860  -46.0350  -38.1400 N.am  305  LYS305     -0.1980
     74  CA        -1.7810  -45.9160  -36.6840 C.3   305  LYS305      0.1596
     75  C         -2.8400  -46.6610  -35.9000 C.2   305  LYS305      0.2287
     76  O         -2.7540  -46.7510  -34.6760 O.2   305  LYS305     -0.2864
     77  CB        -1.7480  -44.4370  -36.2530 C.3   305  LYS305      0.0298
     78  CG        -0.5910  -43.6120  -36.8370 C.3   305  LYS305      0.0038
     79  CD         0.7730  -44.1370  -36.3860 C.3   305  LYS305      0.0206
     80  CE         1.9270  -43.3480  -37.0300 C.3   305  LYS305      0.1093
     81  NZ         3.2410  -43.5320  -36.3150 N.3   305  LYS305     -0.1314
     82  N         -0.4770  -47.3100  -28.6560 N.3   372  VAL372     -0.1245
     83  CA         0.1340  -47.3250  -29.9910 C.3   372  VAL372      0.1561
     84  C         -0.3120  -48.5840  -30.7800 C.2   372  VAL372      0.2260
     85  O          0.4760  -49.5060  -31.0090 O.2   372  VAL372     -0.2867
     86  CB         1.6960  -47.2200  -29.9110 C.3   372  VAL372      0.0252
     87  CG1        2.2790  -46.8660  -31.2580 C.3   372  VAL372      0.0019
     88  CG2        2.1130  -46.1780  -28.8930 C.3   372  VAL372      0.0019
     89  N         -0.6960  -49.5690  -33.7680 N.3   374  SER374     -0.1217
     90  CA        -0.3620  -49.4120  -35.1790 C.3   374  SER374      0.1889
     91  C         -0.6000  -50.6520  -36.0200 C.2   374  SER374      0.2288
     92  O         -0.3500  -51.7700  -35.5700 O.2   374  SER374     -0.2866
     93  CB         1.1010  -48.9880  -35.3200 C.3   374  SER374      0.2089
     94  OG         1.3230  -47.7750  -34.6200 O.3   374  SER374     -0.2183
     95  N          4.5660  -50.4640  -38.1780 N.3   377  ALA377     -0.1231
     96  CA         5.3930  -49.5970  -37.3560 C.3   377  ALA377      0.1679
     97  C          6.8440  -49.8100  -37.6960 C.2   377  ALA377      0.2434
     98  O          7.4920  -50.6740  -37.1150 O.2   377  ALA377     -0.2733
     99  CB         5.1530  -49.8750  -35.8650 C.3   377  ALA377      0.0304
    100  N          7.3570  -49.0550  -38.6780 N.am  378  PRO378     -0.2718
    101  CA         8.7850  -49.1700  -39.0050 C.3   378  PRO378      0.1535
    102  C          9.6710  -49.1760  -37.7390 C.2   378  PRO378      0.2599
    103  O         10.5670  -50.0120  -37.6000 O.2   378  PRO378     -0.2715
    104  CB         9.0360  -47.9460  -39.8830 C.3   378  PRO378      0.0310
    105  CG         7.6870  -47.6600  -40.5090 C.3   378  PRO378      0.0237
    106  CD         6.6440  -48.0920  -39.5400 C.3   378  PRO378      0.0939
    107  N          9.4150  -48.2720  -36.8050 N.am  379  CYS379     -0.1954
    108  CA        10.0930  -48.3450  -35.5200 C.3   379  CYS379      0.1843
    109  C          9.1220  -47.9360  -34.4450 C.2   379  CYS379      0.2626
    110  O          8.6950  -48.7610  -33.6340 O.2   379  CYS379     -0.2714
    111  CB        11.3510  -47.4520  -35.4730 C.3   379  CYS379      0.0997
    112  SG        12.3210  -47.5990  -33.8960 S.3   379  CYS379     -0.0797
    113  N          8.7580  -46.6590  -34.4690 N.am  380  GLY380     -0.1940
    114  CA         7.8960  -46.0730  -33.4490 C.3   380  GLY380      0.2014
    115  C          8.8180  -45.4340  -32.4270 C.2   380  GLY380      0.2639
    116  O          9.7780  -46.0630  -31.9810 O.2   380  GLY380     -0.2714
    117  N          8.5710  -44.1780  -32.0950 N.am  381  LEU381     -0.1963
    118  CA         9.3690  -43.5040  -31.0960 C.3   381  LEU381      0.1728
    119  C          8.5090  -43.2290  -29.8830 C.2   381  LEU381      0.2617
    120  O          8.9920  -43.3000  -28.7490 O.2   381  LEU381     -0.2715
    121  CB         9.9760  -42.2130  -31.6530 C.3   381  LEU381      0.0311
    122  CG        11.0320  -42.4630  -32.7320 C.3   381  LEU381      0.0022
    123  CD1       11.4800  -41.1710  -33.3620 C.3   381  LEU381      0.0001
    124  CD2       12.2460  -43.2180  -32.1720 C.3   381  LEU381      0.0001
    125  N          7.2280  -42.9410  -30.1140 N.am  382  THR382     -0.1937
    126  CA         6.3690  -42.5680  -28.9960 C.3   382  THR382      0.2028
    127  C          6.2960  -43.6720  -27.9410 C.2   382  THR382      0.2642
    128  O          6.1860  -43.3900  -26.7410 O.2   382  THR382     -0.2714
    129  CB         4.9510  -42.1270  -29.4440 C.3   382  THR382      0.1808
    130  OG1        4.2410  -43.2670  -29.9400 O.3   382  THR382     -0.2208
    131  CG2        5.0440  -41.1110  -30.5470 C.3   382  THR382      0.0379
    132  N          6.3760  -44.9360  -28.3620 N.am  383  GLN383     -0.1976
    133  CA         6.3660  -46.0130  -27.3690 C.3   383  GLN383      0.1601
    134  C          7.6980  -46.0340  -26.5860 C.2   383  GLN383      0.2287
    135  O          7.7350  -46.3230  -25.3880 O.2   383  GLN383     -0.2864
    136  CB         5.9850  -47.3860  -27.9890 C.3   383  GLN383      0.0394
    137  CG         7.1390  -48.2810  -28.4920 C.3   383  GLN383      0.0908
    138  CD         7.8000  -47.7620  -29.7850 C.2   383  GLN383      0.2608
    139  OE1        8.6900  -48.4200  -30.3360 O.2   383  GLN383     -0.2717
    140  NE2        7.3760  -46.5760  -30.2640 N.am  383  GLN383     -0.0878
    141  N          7.6090  -51.9220  -32.6360 N.3   401  LEU401     -0.1245
    142  CA         6.8270  -52.1920  -31.4290 C.3   401  LEU401      0.1561
    143  C          7.1210  -53.5920  -30.8760 C.2   401  LEU401      0.2260
    144  O          7.2270  -53.7750  -29.6700 O.2   401  LEU401     -0.2867
    145  CB         5.3280  -52.0420  -31.7060 C.3   401  LEU401      0.0270
    146  CG         4.9050  -50.6850  -32.3010 C.3   401  LEU401      0.0019
    147  CD1        3.3740  -50.5630  -32.3750 C.3   401  LEU401      0.0001
    148  CD2        5.5400  -49.4940  -31.5230 C.3   401  LEU401      0.0001
@<TRIPOS>BOND
     1    33    32    2
     2    32    31    1
     3    36    35    2
     4    31    34    1
     5    31    30    1
     6    34    35    1
     7    30    22   am
     8    35    37   am
     9    20    21    1
    10    11    10    1
    11    27    29   ar
    12    27    25   ar
    13    22    21    1
    14    22    23    2
    15    21    24    1
    16    24    25    1
    17    29    28   ar
    18    25    26   ar
    19    10    12    1
    20    10     9    1
    21    62    61    1
    22    64    65    1
    23    71    70    2
    24    68    65    1
    25    68    69    1
    26    28    26   ar
    27   105   104    1
    28   105   106    1
    29     9     6    1
    30    65    66    1
    31    63    61    1
    32    61    60    2
    33    70    69    1
    34    70    72   am
    35    38    39    1
    36   104   101    1
    37   106   100    1
    38    43    42    1
    39    44    42    1
    40    60    59    1
    41   101   100    1
    42   101   102    1
    43     6     7    1
    44     6     5    1
    45    59    58    1
    46    66    67    2
    47    66    73   am
    48   100    97   am
    49    39    42    1
    50    39    40    1
    51     7     8    2
    52    95    96    1
    53    73    74    1
    54     5     3   am
    55    57    58    1
    56    57    54    1
    57   102   103    2
    58   102   107   am
    59    97    96    1
    60    97    98    2
    61    18    17    1
    62    40    41    2
    63    96    99    1
    64    80    79    1
    65    80    81    1
    66    17    19    1
    67    17    14    1
    68    55    54    1
    69    55    56    2
    70    78    79    1
    71    78    77    1
    72     3     4    2
    73     3     2    1
    74   107   108    1
    75    74    77    1
    76    74    75    1
    77     1     2    1
    78    54    53    1
    79    15    16    2
    80    15    14    1
    81    52    50   am
    82    91    92    2
    83    91    90    1
    84    14    13    1
    85    75    76    2
    86    51    50    2
    87   108   111    1
    88   108   109    1
    89   111   112    1
    90    93    90    1
    91    93    94    1
    92    50    49    1
    93    90    89    1
    94   113   109   am
    95   113   114    1
    96   109   110    2
    97    45    46    1
    98    49    46    1
    99    46    47    1
   100   114   115    1
   101   123   122    1
   102   122   124    1
   103   122   121    1
   104   141   142    1
   105   115   117   am
   106   115   116    2
   107   147   146    1
   108   146   145    1
   109   146   148    1
   110   117   118    1
   111    47    48    2
   112   145   142    1
   113   121   118    1
   114   142   143    1
   115    87    86    1
   116   118   119    1
   117    85    84    2
   118   143   144    2
   119    84    83    1
   120   131   129    1
   121   139   138    2
   122   140   138   am
   123   125   119   am
   124   125   126    1
   125    83    86    1
   126    83    82    1
   127   130   129    1
   128    86    88    1
   129   119   120    2
   130   138   137    1
   131   129   126    1
   132   126   127    1
   133   137   136    1
   134   132   127   am
   135   132   133    1
   136   136   133    1
   137   127   128    2
   138   133   134    1
   139   134   135    2
