@<TRIPOS>MOLECULE
tmp/3cx4A05.pdb
 143 139 0 0 0
SMALL
GASTEIGER

@<TRIPOS>ATOM
      1  N         12.9590  -48.6390  -65.5840 N.3   185  ASN185     -0.1225
      2  CA        12.9910  -50.0650  -65.8350 C.3   185  ASN185      0.1785
      3  C         12.7930  -50.8070  -64.5110 C.2   185  ASN185      0.2597
      4  O         13.3400  -50.3890  -63.4890 O.2   185  ASN185     -0.2718
      5  CB        14.3510  -50.4250  -66.4470 C.3   185  ASN185      0.1169
      6  CG        14.4030  -51.8510  -66.9720 C.2   185  ASN185      0.2627
      7  OD1       14.5150  -52.8180  -66.2070 O.2   185  ASN185     -0.2716
      8  ND2       14.3330  -51.9890  -68.2950 N.am  185  ASN185     -0.0877
      9  N         12.0210  -51.8920  -64.5180 N.am  186  ILE186     -0.1966
     10  CA        11.9130  -52.7590  -63.3390 C.3   186  ILE186      0.1727
     11  C         13.2970  -52.9490  -62.6900 C.2   186  ILE186      0.2616
     12  O         13.4340  -52.9540  -61.4700 O.2   186  ILE186     -0.2715
     13  CB        11.2790  -54.1420  -63.7010 C.3   186  ILE186      0.0290
     14  CG1       10.8900  -54.9340  -62.4440 C.3   186  ILE186      0.0022
     15  CG2       12.2130  -54.9600  -64.6380 C.3   186  ILE186      0.0023
     16  CD1        9.9900  -56.1160  -62.7320 C.3   186  ILE186      0.0001
     17  N         14.3260  -53.0990  -63.5120 N.am  187  HIS187     -0.1973
     18  CA        15.6900  -53.0800  -63.0180 C.3   187  HIS187      0.1656
     19  C         16.1780  -51.6280  -63.0050 C.2   187  HIS187      0.2291
     20  O         17.0010  -51.2160  -63.8260 O.2   187  HIS187     -0.2864
     21  CB        16.5840  -53.9810  -63.8690 C.3   187  HIS187      0.0771
     22  CG        16.1610  -55.4150  -63.8470 C.ar  187  HIS187      0.0820
     23  ND1       16.5830  -56.3010  -62.8780 N.ar  187  HIS187     -0.2267
     24  CD2       15.3190  -56.1090  -64.6520 C.ar  187  HIS187      0.1154
     25  CE1       16.0300  -57.4830  -63.0940 C.ar  187  HIS187      0.1986
     26  NE2       15.2590  -57.3930  -64.1650 N.ar  187  HIS187     -0.2212
     27  N         11.6450  -47.7250  -62.0360 N.3   190  GLU190     -0.1231
     28  CA        10.2640  -47.8420  -62.4670 C.3   190  GLU190      0.1699
     29  C          9.5180  -48.6790  -61.4400 C.2   190  GLU190      0.2592
     30  O         10.0960  -49.5590  -60.8020 O.2   190  GLU190     -0.2718
     31  CB        10.1900  -48.4770  -63.8680 C.3   190  GLU190      0.0402
     32  CG         8.7740  -48.6480  -64.4210 C.3   190  GLU190      0.1161
     33  CD         8.1200  -49.9840  -64.0330 C.2   190  GLU190      0.3649
     34  OE1        8.8330  -50.9140  -63.5800 O.co2 190  GLU190     -0.2457
     35  OE2        6.8770  -50.0970  -64.1650 O.co2 190  GLU190     -0.2457
     36  N          8.2330  -48.4130  -61.2740 N.am  191  PHE191     -0.1962
     37  CA         7.4420  -49.2010  -60.3640 C.3   191  PHE191      0.1771
     38  C          5.9920  -49.1140  -60.7970 C.2   191  PHE191      0.2620
     39  O          5.3410  -48.0680  -60.6370 O.2   191  PHE191     -0.2715
     40  CB         7.6370  -48.7420  -58.9040 C.3   191  PHE191      0.0574
     41  CG         6.7950  -49.5040  -57.9010 C.ar  191  PHE191     -0.0200
     42  CD1        7.0900  -50.8230  -57.5750 C.ar  191  PHE191     -0.0042
     43  CD2        5.7090  -48.8930  -57.2770 C.ar  191  PHE191     -0.0042
     44  CE1        6.3140  -51.5150  -56.6480 C.ar  191  PHE191     -0.0003
     45  CE2        4.9360  -49.5790  -56.3600 C.ar  191  PHE191     -0.0003
     46  CZ         5.2380  -50.8900  -56.0480 C.ar  191  PHE191     -0.0000
     47  N          5.5040  -50.2260  -61.3570 N.am  192  ASN192     -0.1958
     48  CA         4.1530  -50.3230  -61.9010 C.3   192  ASN192      0.1819
     49  C          3.7770  -49.1580  -62.8040 C.2   192  ASN192      0.2621
     50  O          2.7220  -48.5280  -62.6240 O.2   192  ASN192     -0.2715
     51  CB         3.1310  -50.4940  -60.7800 C.3   192  ASN192      0.1195
     52  CG         3.3860  -51.7330  -59.9630 C.2   192  ASN192      0.2630
     53  OD1        3.0670  -51.7780  -58.7750 O.2   192  ASN192     -0.2716
     54  ND2        3.9940  -52.7430  -60.5870 N.am  192  ASN192     -0.0877
     55  N          4.6530  -48.8550  -63.7580 N.am  193  GLY193     -0.1954
     56  CA         4.3480  -47.8300  -64.7510 C.3   193  GLY193      0.1869
     57  C          4.6570  -46.3920  -64.3700 C.2   193  GLY193      0.2309
     58  O          4.5420  -45.4970  -65.2120 O.2   193  GLY193     -0.2863
     59  N         11.5990  -46.6940  -54.7290 N.3   199  LYS199     -0.1245
     60  CA        12.1560  -47.7560  -55.5730 C.3   199  LYS199      0.1561
     61  C         13.5810  -47.4000  -55.9500 C.2   199  LYS199      0.2260
     62  O         14.4810  -48.2330  -55.8550 O.2   199  LYS199     -0.2867
     63  CB        11.3170  -47.9030  -56.8570 C.3   199  LYS199      0.0271
     64  CG        11.2360  -49.3190  -57.4520 C.3   199  LYS199      0.0035
     65  CD        12.6140  -49.8970  -57.7570 C.3   199  LYS199      0.0206
     66  CE        12.5550  -51.3330  -58.3280 C.3   199  LYS199      0.1093
     67  NZ        11.9220  -51.4520  -59.7080 N.3   199  LYS199     -0.1314
     68  N         16.6200  -49.6400  -54.9940 N.3   203  TYR203     -0.1241
     69  CA        17.3050  -50.3240  -56.0790 C.3   203  TYR203      0.1605
     70  C         18.7850  -49.9650  -56.1790 C.2   203  TYR203      0.2264
     71  O         19.6520  -50.8500  -56.3290 O.2   203  TYR203     -0.2867
     72  CB        16.6190  -50.0870  -57.4400 C.3   203  TYR203      0.0534
     73  CG        17.2740  -50.9190  -58.5220 C.ar  203  TYR203     -0.0201
     74  CD1       18.3570  -50.4210  -59.2480 C.ar  203  TYR203     -0.0009
     75  CD2       16.8570  -52.2330  -58.7710 C.ar  203  TYR203     -0.0009
     76  CE1       18.9930  -51.1910  -60.2140 C.ar  203  TYR203      0.0417
     77  CE2       17.4890  -53.0290  -59.7410 C.ar  203  TYR203      0.0417
     78  CZ        18.5560  -52.4950  -60.4560 C.ar  203  TYR203      0.1957
     79  OH        19.1920  -53.2480  -61.4260 O.3   203  TYR203     -0.2866
     80  N          3.9260  -54.4370  -52.8500 N.3   227  GLY227     -0.1210
     81  CA         4.3850  -54.6880  -54.2100 C.3   227  GLY227      0.1956
     82  C          5.8920  -54.6680  -54.3850 C.2   227  GLY227      0.2612
     83  O          6.3870  -55.0380  -55.4470 O.2   227  GLY227     -0.2717
     84  N          6.6320  -54.2630  -53.3530 N.am  228  MET228     -0.1965
     85  CA         8.0940  -54.1070  -53.4780 C.3   228  MET228      0.1736
     86  C          8.8870  -55.3190  -53.0100 C.2   228  MET228      0.2616
     87  O         10.1140  -55.3600  -53.1530 O.2   228  MET228     -0.2715
     88  CB         8.5870  -52.8700  -52.7040 C.3   228  MET228      0.0427
     89  CG         7.8660  -51.5670  -53.0530 C.3   228  MET228      0.0599
     90  SD         8.9100  -50.3380  -53.8890 S.3   228  MET228     -0.1393
     91  CE        10.0520  -51.4810  -54.6690 C.3   228  MET228      0.0692
     92  N          8.1840  -56.3060  -52.4670 N.am  229  GLU229     -0.1963
     93  CA         8.8170  -57.3820  -51.7010 C.3   229  GLU229      0.1733
     94  C          9.8850  -58.1530  -52.4610 C.2   229  GLU229      0.2617
     95  O         10.8600  -58.6110  -51.8600 O.2   229  GLU229     -0.2715
     96  CB         7.7650  -58.3430  -51.1480 C.3   229  GLU229      0.0429
     97  CG         6.9170  -58.9970  -52.2190 C.3   229  GLU229      0.1163
     98  CD         5.6680  -58.2010  -52.5500 C.2   229  GLU229      0.3649
     99  OE1        5.5610  -57.0150  -52.1470 O.co2 229  GLU229     -0.2457
    100  OE2        4.7780  -58.7780  -53.2120 O.co2 229  GLU229     -0.2457
    101  N          9.7030  -58.2940  -53.7740 N.am  230  GLY230     -0.1940
    102  CA        10.6610  -59.0130  -54.5990 C.3   230  GLY230      0.2014
    103  C         12.0430  -58.4020  -54.6210 C.2   230  GLY230      0.2638
    104  O         13.0550  -59.1160  -54.6400 O.2   230  GLY230     -0.2714
    105  N         12.1000  -57.0730  -54.6240 N.am  231  LEU231     -0.1977
    106  CA        13.3860  -56.3720  -54.5640 C.3   231  LEU231      0.1596
    107  C         14.0310  -56.6310  -53.2090 C.2   231  LEU231      0.2287
    108  O         15.2330  -56.9540  -53.1040 O.2   231  LEU231     -0.2864
    109  CB        13.1700  -54.8700  -54.7280 C.3   231  LEU231      0.0297
    110  CG        14.2650  -54.0450  -55.4100 C.3   231  LEU231      0.0022
    111  CD1       14.2460  -52.6150  -54.8840 C.3   231  LEU231      0.0001
    112  CD2       15.6710  -54.6420  -55.3460 C.3   231  LEU231      0.0001
    113  N         15.3360  -60.1330  -52.7730 N.3   234  GLN234     -0.1231
    114  CA        16.6010  -60.2510  -53.5050 C.3   234  GLN234      0.1698
    115  C         17.7750  -59.5430  -52.8130 C.2   234  GLN234      0.2592
    116  O         18.9000  -60.0760  -52.7500 O.2   234  GLN234     -0.2718
    117  CB        16.4400  -59.7310  -54.9360 C.3   234  GLN234      0.0381
    118  CG        17.7540  -59.5880  -55.7070 C.3   234  GLN234      0.0905
    119  CD        18.2800  -60.9010  -56.2470 C.2   234  GLN234      0.2608
    120  OE1       17.5300  -61.8510  -56.4550 O.2   234  GLN234     -0.2717
    121  NE2       19.5750  -60.9520  -56.4920 N.am  234  GLN234     -0.0878
    122  N         17.5260  -58.3410  -52.2990 N.am  235  ARG235     -0.1980
    123  CA        18.5650  -57.6210  -51.5590 C.3   235  ARG235      0.1597
    124  C         18.9290  -58.3090  -50.2420 C.2   235  ARG235      0.2287
    125  O         20.0890  -58.3020  -49.8230 O.2   235  ARG235     -0.2864
    126  CB        18.1510  -56.1670  -51.3120 C.3   235  ARG235      0.0334
    127  CG        18.2080  -55.3010  -52.5460 C.3   235  ARG235      0.0492
    128  CD        19.6490  -55.0160  -52.9730 C.3   235  ARG235      0.2205
    129  NE        19.6460  -54.1070  -54.1120 N.pl3 235  ARG235     -0.0865
    130  CZ        19.5480  -54.4870  -55.3850 C.cat 235  ARG235      0.5346
    131  NH1       19.4930  -55.7830  -55.6890 N.pl3 235  ARG235      0.1354
    132  NH2       19.5120  -53.5760  -56.3570 N.pl3 235  ARG235      0.1354
    133  N         18.9200  -61.6270  -49.7050 N.3   237  ARG237     -0.1245
    134  CA        19.8210  -62.6660  -50.1920 C.3   237  ARG237      0.1563
    135  C         21.2330  -62.1710  -50.5180 C.2   237  ARG237      0.2260
    136  O         22.2070  -62.9070  -50.3330 O.2   237  ARG237     -0.2867
    137  CB        19.2350  -63.3150  -51.4370 C.3   237  ARG237      0.0307
    138  CG        18.2710  -64.4320  -51.1430 C.3   237  ARG237      0.0489
    139  CD        17.7410  -65.0280  -52.4370 C.3   237  ARG237      0.2205
    140  NE        16.3180  -64.7460  -52.6220 N.pl3 237  ARG237     -0.0865
    141  CZ        15.8120  -64.0700  -53.6480 C.cat 237  ARG237      0.5346
    142  NH1       16.6170  -63.5950  -54.5960 N.pl3 237  ARG237      0.1354
    143  NH2       14.4970  -63.8850  -53.7260 N.pl3 237  ARG237      0.1354
@<TRIPOS>BOND
     1     8     6   am
     2     6     5    1
     3     6     7    2
     4     5     2    1
     5     2     1    1
     6     2     3    1
     7    58    57    2
     8    56    57    1
     9    56    55    1
    10    24    26   ar
    11    24    22   ar
    12    15    13    1
    13     9     3   am
    14     9    10    1
    15     3     4    2
    16    32    33    1
    17    32    31    1
    18    35    33   ar
    19    26    25   ar
    20    33    34   ar
    21    21    22    1
    22    21    18    1
    23    31    28    1
    24    22    23   ar
    25    20    19    2
    26    55    49   am
    27    13    10    1
    28    13    14    1
    29    17    18    1
    30    17    11   am
    31    10    11    1
    32    25    23   ar
    33    18    19    1
    34    49    50    2
    35    49    48    1
    36    16    14    1
    37    11    12    2
    38    28    27    1
    39    28    29    1
    40    48    47    1
    41    48    51    1
    42    29    36   am
    43    29    30    2
    44    79    78    1
    45    47    38   am
    46    36    37    1
    47    38    39    2
    48    38    37    1
    49    51    52    1
    50    54    52   am
    51    78    76   ar
    52    78    77   ar
    53    37    40    1
    54    76    74   ar
    55    52    53    2
    56    77    75   ar
    57    67    66    1
    58    74    73   ar
    59    40    41    1
    60    75    73   ar
    61    73    72    1
    62    66    65    1
    63    41    42   ar
    64    41    43   ar
    65    65    64    1
    66    42    44   ar
    67    64    63    1
    68    72    69    1
    69    43    45   ar
    70    63    60    1
    71    44    46   ar
    72   121   119   am
    73   120   119    2
    74    45    46   ar
    75   132   130    1
    76    71    70    2
    77   119   118    1
    78    70    69    1
    79    69    68    1
    80    61    62    2
    81    61    60    1
    82   118   117    1
    83   131   130    1
    84    60    59    1
    85    83    82    2
    86   110   112    1
    87   110   111    1
    88   110   109    1
    89   130   129    2
    90   117   114    1
    91   109   106    1
    92    91    90    1
    93   104   103    2
    94   105   103   am
    95   105   106    1
    96   103   102    1
    97   102   101    1
    98   142   141    1
    99   106   107    1
   100    82    81    1
   101    82    84   am
   102    81    80    1
   103   129   128    1
   104    90    89    1
   105   101    94   am
   106   143   141    1
   107   141   140    2
   108   114   115    1
   109   114   113    1
   110    85    84    1
   111    85    86    1
   112    85    88    1
   113   100    98   ar
   114   107   108    2
   115    87    86    2
   116    89    88    1
   117    86    92   am
   118   128   127    1
   119   115   116    2
   120   115   122   am
   121   140   139    1
   122    98    97    1
   123    98    99   ar
   124   127   126    1
   125    92    93    1
   126    94    95    2
   127    94    93    1
   128   139   138    1
   129   122   123    1
   130    97    96    1
   131    93    96    1
   132   123   126    1
   133   123   124    1
   134   137   138    1
   135   137   134    1
   136   135   136    2
   137   135   134    1
   138   124   125    2
   139   134   133    1
