@<TRIPOS>MOLECULE
tmp/3cx4A02.pdb
 147 144 0 0 0
SMALL
GASTEIGER

@<TRIPOS>ATOM
      1  N         13.8020  -33.3330  -43.0700 N.3     9  GLU9       -0.1245
      2  CA        13.4430  -32.6710  -41.8230 C.3     9  GLU9        0.1567
      3  C         14.4470  -32.9230  -40.7220 C.2     9  GLU9        0.2260
      4  O         15.2570  -33.8400  -40.8280 O.2     9  GLU9       -0.2867
      5  CB        12.0060  -32.9980  -41.3660 C.3     9  GLU9        0.0388
      6  CG        11.5190  -34.4010  -41.6090 C.3     9  GLU9        0.1160
      7  CD        10.0370  -34.5920  -41.1630 C.2     9  GLU9        0.3649
      8  OE1        9.7990  -34.6650  -39.9360 O.co2   9  GLU9       -0.2457
      9  OE2        9.1270  -34.6790  -42.0270 O.co2   9  GLU9       -0.2457
     10  N          7.6840  -33.1290  -38.7580 N.3    16  THR16      -0.1203
     11  CA         6.3170  -33.5800  -38.9460 C.3    16  THR16       0.1994
     12  C          6.0860  -34.9330  -38.2570 C.2    16  THR16       0.2618
     13  O          4.9550  -35.3800  -38.1310 O.2    16  THR16      -0.2717
     14  CB         5.9400  -33.7130  -40.4530 C.3    16  THR16       0.1784
     15  OG1        6.6040  -34.8530  -41.0170 O.3    16  THR16      -0.2211
     16  CG2        6.3080  -32.4510  -41.2450 C.3    16  THR16       0.0376
     17  N          7.1580  -35.5820  -37.8130 N.am   17  GLY17      -0.1942
     18  CA         7.0570  -36.9000  -37.1600 C.3    17  GLY17       0.2014
     19  C          8.4180  -37.4390  -36.7400 C.2    17  GLY17       0.2639
     20  O          9.3380  -36.6700  -36.4890 O.2    17  GLY17      -0.2714
     21  N          8.5450  -38.7640  -36.6740 N.am   18  GLY18      -0.1939
     22  CA         9.7290  -39.3960  -36.1040 C.3    18  GLY18       0.2014
     23  C         11.0440  -39.1770  -36.8230 C.2    18  GLY18       0.2638
     24  O         12.1190  -39.1750  -36.1950 O.2    18  GLY18      -0.2714
     25  N         10.9640  -39.0310  -38.1400 N.am   19  LEU19      -0.1977
     26  CA        12.1250  -38.8230  -38.9960 C.3    19  LEU19       0.1596
     27  C         12.9940  -37.6650  -38.5070 C.2    19  LEU19       0.2287
     28  O         14.2500  -37.7690  -38.4470 O.2    19  LEU19      -0.2864
     29  CB        11.6480  -38.4890  -40.4150 C.3    19  LEU19       0.0297
     30  CG        12.4870  -38.8180  -41.6420 C.3    19  LEU19       0.0022
     31  CD1       12.1730  -37.8430  -42.7680 C.3    19  LEU19       0.0001
     32  CD2       14.0130  -38.9550  -41.3910 C.3    19  LEU19       0.0001
     33  N          5.9770  -31.2050  -47.6130 N.3    95  TYR95      -0.1227
     34  CA         5.3920  -32.1180  -48.5930 C.3    95  TYR95       0.1736
     35  C          4.0930  -31.6380  -49.2540 C.2    95  TYR95       0.2595
     36  O          3.8060  -31.9870  -50.3880 O.2    95  TYR95      -0.2718
     37  CB         5.2040  -33.5080  -47.9730 C.3    95  TYR95       0.0548
     38  CG         6.3450  -33.8930  -47.0530 C.ar   95  TYR95      -0.0200
     39  CD1        7.5980  -34.2180  -47.5640 C.ar   95  TYR95      -0.0009
     40  CD2        6.1710  -33.9230  -45.6670 C.ar   95  TYR95      -0.0009
     41  CE1        8.6460  -34.5560  -46.7290 C.ar   95  TYR95       0.0417
     42  CE2        7.2170  -34.2650  -44.8270 C.ar   95  TYR95       0.0417
     43  CZ         8.4460  -34.5750  -45.3620 C.ar   95  TYR95       0.1957
     44  OH         9.4790  -34.9010  -44.5350 O.3    95  TYR95      -0.2866
     45  N          3.2900  -30.8510  -48.5620 N.am   96  HIS96      -0.1975
     46  CA         1.9900  -30.5180  -49.1280 C.3    96  HIS96       0.1656
     47  C          1.5430  -29.1610  -48.6650 C.2    96  HIS96       0.2291
     48  O          2.0850  -28.6300  -47.7030 O.2    96  HIS96      -0.2864
     49  CB         0.9460  -31.5730  -48.7390 C.3    96  HIS96       0.0771
     50  CG         0.9160  -31.8620  -47.2760 C.ar   96  HIS96       0.0820
     51  ND1        1.4370  -33.0200  -46.7360 N.ar   96  HIS96      -0.2267
     52  CD2        0.4630  -31.1250  -46.2320 C.ar   96  HIS96       0.1154
     53  CE1        1.3040  -32.9850  -45.4210 C.ar   96  HIS96       0.1986
     54  NE2        0.7190  -31.8450  -45.0900 N.ar   96  HIS96      -0.2212
     55  N         -3.7430  -29.7170  -47.7620 N.3   100  LEU100     -0.1245
     56  CA        -3.2520  -31.1060  -47.6770 C.3   100  LEU100      0.1561
     57  C         -2.9280  -31.7530  -49.0370 C.2   100  LEU100      0.2260
     58  O         -2.7140  -32.9690  -49.1330 O.2   100  LEU100     -0.2867
     59  CB        -4.2210  -31.9780  -46.8700 C.3   100  LEU100      0.0270
     60  CG        -4.1680  -31.7830  -45.3540 C.3   100  LEU100      0.0019
     61  CD1       -5.5440  -31.9740  -44.7280 C.3   100  LEU100      0.0001
     62  CD2       -3.1340  -32.7170  -44.7300 C.3   100  LEU100      0.0001
     63  N         -0.4350  -32.5430  -52.0450 N.3   102  ALA102     -0.1245
     64  CA         0.9590  -32.6210  -52.4450 C.3   102  ALA102      0.1562
     65  C          1.2820  -31.5230  -53.4560 C.2   102  ALA102      0.2260
     66  O          0.5120  -31.2800  -54.3750 O.2   102  ALA102     -0.2867
     67  CB         1.2630  -33.9920  -53.0370 C.3   102  ALA102      0.0290
     68  N         14.3640  -42.1410  -46.5910 N.3   137  ASP137     -0.1225
     69  CA        13.0090  -42.1930  -47.1420 C.3   137  ASP137      0.1805
     70  C         12.9500  -41.7310  -48.6030 C.2   137  ASP137      0.2598
     71  O         13.9880  -41.3990  -49.2000 O.2   137  ASP137     -0.2718
     72  CB        12.0040  -41.4530  -46.2590 C.3   137  ASP137      0.1424
     73  CG        11.1420  -42.4060  -45.4330 C.2   137  ASP137      0.3668
     74  OD1       11.3800  -43.6460  -45.4510 O.co2 137  ASP137     -0.2456
     75  OD2       10.2260  -41.9160  -44.7550 O.co2 137  ASP137     -0.2456
     76  N         11.7490  -41.7230  -49.1780 N.am  138  TRP138     -0.1962
     77  CA        11.6030  -41.4440  -50.6140 C.3   138  TRP138      0.1771
     78  C         12.1440  -40.0680  -50.9950 C.2   138  TRP138      0.2619
     79  O         12.6230  -39.8700  -52.1220 O.2   138  TRP138     -0.2715
     80  CB        10.1520  -41.6310  -51.1010 C.3   138  TRP138      0.0590
     81  CG         9.1380  -40.5450  -50.6890 C.ar  138  TRP138      0.0006
     82  CD1        8.2900  -40.5870  -49.6330 C.ar  138  TRP138      0.0946
     83  CD2        8.8690  -39.3000  -51.3700 C.ar  138  TRP138      0.0152
     84  NE1        7.5080  -39.4380  -49.5910 N.ar  138  TRP138     -0.2442
     85  CE2        7.8410  -38.6430  -50.6580 C.ar  138  TRP138      0.0810
     86  CE3        9.3900  -38.6880  -52.5140 C.ar  138  TRP138      0.0012
     87  CZ2        7.3400  -37.3920  -51.0430 C.ar  138  TRP138      0.0191
     88  CZ3        8.8820  -37.4440  -52.9030 C.ar  138  TRP138      0.0001
     89  CH2        7.8720  -36.8150  -52.1660 C.ar  138  TRP138      0.0015
     90  N         12.0870  -39.1310  -50.0510 N.am  139  HIS139     -0.1973
     91  CA        12.4630  -37.7360  -50.3450 C.3   139  HIS139      0.1656
     92  C         13.8740  -37.6730  -50.9180 C.2   139  HIS139      0.2291
     93  O         14.1590  -36.8420  -51.7610 O.2   139  HIS139     -0.2864
     94  CB        12.3590  -36.8670  -49.0930 C.3   139  HIS139      0.0771
     95  CG        11.2070  -37.2240  -48.2060 C.ar  139  HIS139      0.0820
     96  ND1       11.3750  -37.7330  -46.9310 N.ar  139  HIS139     -0.2267
     97  CD2        9.8690  -37.1640  -48.4140 C.ar  139  HIS139      0.1154
     98  CE1       10.1910  -37.9650  -46.3930 C.ar  139  HIS139      0.1986
     99  NE2        9.2610  -37.6360  -47.2720 N.ar  139  HIS139     -0.2212
    100  N         12.3770  -45.3130  -43.4710 N.3   161  HIS161     -0.1226
    101  CA        11.6610  -44.9760  -42.2580 C.3   161  HIS161      0.1752
    102  C         10.2110  -45.3400  -42.4530 C.2   161  HIS161      0.2596
    103  O          9.4850  -45.5050  -41.4840 O.2   161  HIS161     -0.2718
    104  CB        11.7990  -43.4830  -41.9440 C.3   161  HIS161      0.0759
    105  CG        13.2120  -43.0660  -41.7040 C.ar  161  HIS161      0.0818
    106  ND1       13.7030  -42.8020  -40.4440 N.ar  161  HIS161     -0.2268
    107  CD2       14.2580  -42.9310  -42.5520 C.ar  161  HIS161      0.1154
    108  CE1       14.9810  -42.4820  -40.5330 C.ar  161  HIS161      0.1986
    109  NE2       15.3460  -42.5720  -41.7970 N.ar  161  HIS161     -0.2212
    110  N          9.7960  -45.4550  -43.7090 N.am  162  ASN162     -0.1974
    111  CA         8.4360  -45.8670  -44.0110 C.3   162  ASN162      0.1688
    112  C          8.2430  -46.3560  -45.4330 C.2   162  ASN162      0.2292
    113  O          8.3930  -45.5930  -46.3880 O.2   162  ASN162     -0.2864
    114  CB         7.4470  -44.7410  -43.7510 C.3   162  ASN162      0.1181
    115  CG         6.0490  -45.2630  -43.5570 C.2   162  ASN162      0.2629
    116  OD1        5.5220  -45.9660  -44.4110 O.2   162  ASN162     -0.2716
    117  ND2        5.4620  -44.9680  -42.4150 N.am  162  ASN162     -0.0877
    118  N          5.1630  -44.9060  -48.1650 N.3   165  TYR165     -0.1241
    119  CA         5.3010  -43.6730  -48.9530 C.3   165  TYR165      0.1605
    120  C          6.3080  -43.9010  -50.0510 C.2   165  TYR165      0.2264
    121  O          7.4930  -44.1580  -49.8120 O.2   165  TYR165     -0.2867
    122  CB         5.7540  -42.5050  -48.0860 C.3   165  TYR165      0.0534
    123  CG         4.8890  -42.3360  -46.8690 C.ar  165  TYR165     -0.0201
    124  CD1        3.5450  -42.0280  -46.9960 C.ar  165  TYR165     -0.0009
    125  CD2        5.4030  -42.5030  -45.5980 C.ar  165  TYR165     -0.0009
    126  CE1        2.7300  -41.8860  -45.8860 C.ar  165  TYR165      0.0417
    127  CE2        4.5860  -42.3580  -44.4680 C.ar  165  TYR165      0.0417
    128  CZ         3.2500  -42.0540  -44.6280 C.ar  165  TYR165      0.1957
    129  OH         2.4350  -41.9100  -43.5250 O.3   165  TYR165     -0.2866
    130  N          0.2110  -38.8650  -35.3180 N.3   300  ARG300     -0.1245
    131  CA        -0.3240  -38.4690  -36.6340 C.3   300  ARG300      0.1563
    132  C         -1.5560  -39.3270  -36.8510 C.2   300  ARG300      0.2260
    133  O         -1.5410  -40.5190  -36.5750 O.2   300  ARG300     -0.2867
    134  CB         0.6830  -38.6940  -37.7840 C.3   300  ARG300      0.0307
    135  CG         1.9300  -37.7640  -37.7640 C.3   300  ARG300      0.0489
    136  CD         2.9610  -38.0500  -38.9020 C.3   300  ARG300      0.2205
    137  NE         3.3360  -39.4680  -39.0110 N.pl3 300  ARG300     -0.0865
    138  CZ         3.1040  -40.2330  -40.0840 C.cat 300  ARG300      0.5346
    139  NH1        2.5120  -39.7170  -41.1610 N.pl3 300  ARG300      0.1354
    140  NH2        3.4820  -41.5110  -40.0940 N.pl3 300  ARG300      0.1354
    141  N         -3.2620  -41.1170  -39.3820 N.3   302  THR302     -0.1218
    142  CA        -3.2210  -41.7230  -40.7010 C.3   302  THR302      0.1862
    143  C         -3.5650  -43.1770  -40.4540 C.2   302  THR302      0.2287
    144  O         -3.5350  -43.6140  -39.3040 O.2   302  THR302     -0.2866
    145  CB        -1.8060  -41.6290  -41.3830 C.3   302  THR302      0.1770
    146  OG1       -0.7940  -42.1900  -40.5290 O.3   302  THR302     -0.2211
    147  CG2       -1.4300  -40.1770  -41.7130 C.3   302  THR302      0.0375
@<TRIPOS>BOND
     1    66    65    2
     2    65    64    1
     3    67    64    1
     4    88    86   ar
     5    88    89   ar
     6    86    83   ar
     7    64    63    1
     8    89    87   ar
     9    79    78    2
    10    93    92    2
    11    83    81   ar
    12    83    85   ar
    13    80    81    1
    14    80    77    1
    15    87    85   ar
    16    78    77    1
    17    78    90   am
    18    92    91    1
    19    81    82   ar
    20    85    84   ar
    21    77    76    1
    22    36    35    2
    23    91    90    1
    24    91    94    1
    25   120   121    2
    26   120   119    1
    27    82    84   ar
    28    35    34    1
    29    35    45   am
    30    71    70    2
    31    76    70   am
    32    58    57    2
    33    46    49    1
    34    46    47    1
    35    46    45    1
    36    94    95    1
    37    57    56    1
    38   119   118    1
    39   119   122    1
    40    49    50    1
    41    47    48    2
    42    70    69    1
    43    34    37    1
    44    34    33    1
    45    97    95   ar
    46    97    99   ar
    47    95    96   ar
    48   122   123    1
    49    37    38    1
    50    55    56    1
    51    56    59    1
    52    39    38   ar
    53    39    41   ar
    54    50    51   ar
    55    50    52   ar
    56    99    98   ar
    57    69    68    1
    58    69    72    1
    59    38    40   ar
    60   124   123   ar
    61   124   126   ar
    62    96    98   ar
    63    59    60    1
    64   123   125   ar
    65    51    53   ar
    66    41    43   ar
    67   113   112    2
    68    72    73    1
    69    52    54   ar
    70   126   128   ar
    71    40    42   ar
    72   125   127   ar
    73    74    73   ar
    74    73    75   ar
    75   112   111    1
    76    53    54   ar
    77    43    42   ar
    78    43    44    1
    79    60    62    1
    80    60    61    1
    81   128   127   ar
    82   128   129    1
    83   116   115    2
    84   111   114    1
    85   111   110    1
    86   114   115    1
    87   110   102   am
    88   115   117   am
    89   100   101    1
    90     1     2    1
    91    31    30    1
    92   107   109   ar
    93   107   105   ar
    94   102   101    1
    95   102   103    2
    96   101   104    1
    97     9     7   ar
    98   104   105    1
    99     2     5    1
   100     2     3    1
   101   109   108   ar
   102   147   145    1
   103   105   106   ar
   104    30    32    1
   105    30    29    1
   106     6     5    1
   107     6     7    1
   108   145   142    1
   109   145   146    1
   110    16    14    1
   111     7     8   ar
   112   139   138    1
   113    15    14    1
   114     4     3    2
   115   142   143    1
   116   142   141    1
   117   108   106   ar
   118   143   144    2
   119    14    11    1
   120    29    26    1
   121   140   138    1
   122   138   137    2
   123   137   136    1
   124    26    27    1
   125    26    25    1
   126    11    10    1
   127    11    12    1
   128   136   135    1
   129    27    28    2
   130    12    13    2
   131    12    17   am
   132    25    23   am
   133    17    18    1
   134   134   135    1
   135   134   131    1
   136    18    19    1
   137   132   131    1
   138   132   133    2
   139    23    24    2
   140    23    22    1
   141    19    21   am
   142    19    20    2
   143    21    22    1
   144   131   130    1
