@<TRIPOS>MOLECULE
tmp/3cx4A04.pdb
 95 96 0 0 0
SMALL
GASTEIGER

@<TRIPOS>ATOM
      1  N         27.6310  -35.0680  -41.4610 N.3    38  ARG38      -0.1245
      2  CA        26.9530  -33.8180  -41.7660 C.3    38  ARG38       0.1563
      3  C         25.5780  -34.1330  -42.3310 C.2    38  ARG38       0.2260
      4  O         25.3090  -35.2790  -42.7100 O.2    38  ARG38      -0.2867
      5  CB        27.7820  -32.9520  -42.7280 C.3    38  ARG38       0.0307
      6  CG        29.1390  -32.5520  -42.1430 C.3    38  ARG38       0.0489
      7  CD        30.0000  -31.8040  -43.1410 C.3    38  ARG38       0.2205
      8  NE        31.1960  -31.2600  -42.5150 N.pl3  38  ARG38      -0.0865
      9  CZ        31.9600  -30.3020  -43.0470 C.cat  38  ARG38       0.5346
     10  NH1       31.6510  -29.7660  -44.2300 N.pl3  38  ARG38       0.1354
     11  NH2       33.0370  -29.8740  -42.3870 N.pl3  38  ARG38       0.1354
     12  N         27.0520  -19.9610  -44.1940 N.3    55  GLN55      -0.1231
     13  CA        27.8890  -19.2900  -45.2040 C.3    55  GLN55       0.1698
     14  C         27.6440  -19.8760  -46.5860 C.2    55  GLN55       0.2592
     15  O         27.2100  -21.0180  -46.7210 O.2    55  GLN55      -0.2718
     16  CB        29.3810  -19.4580  -44.8910 C.3    55  GLN55       0.0381
     17  CG        29.7870  -19.0470  -43.4940 C.3    55  GLN55       0.0905
     18  CD        30.4750  -17.7100  -43.4790 C.2    55  GLN55       0.2608
     19  OE1       31.7050  -17.6380  -43.6020 O.2    55  GLN55      -0.2717
     20  NE2       29.6920  -16.6310  -43.3630 N.am   55  GLN55      -0.0878
     21  N         27.9670  -19.0970  -47.6100 N.am   56  VAL56      -0.1966
     22  CA        27.8810  -19.5720  -48.9840 C.3    56  VAL56       0.1727
     23  C         29.0070  -20.5400  -49.3410 C.2    56  VAL56       0.2616
     24  O         30.2010  -20.2210  -49.1600 O.2    56  VAL56      -0.2715
     25  CB        27.8670  -18.3870  -49.9960 C.3    56  VAL56       0.0290
     26  CG1       27.9060  -18.9160  -51.4240 C.3    56  VAL56       0.0023
     27  CG2       26.6240  -17.5550  -49.7930 C.3    56  VAL56       0.0023
     28  N         28.6300  -21.7110  -49.8560 N.am   57  VAL57      -0.1977
     29  CA        29.6060  -22.6640  -50.3690 C.3    57  VAL57       0.1596
     30  C         29.6930  -22.6120  -51.8990 C.2    57  VAL57       0.2287
     31  O         30.7600  -22.7950  -52.4710 O.2    57  VAL57      -0.2864
     32  CB        29.3020  -24.1400  -49.9200 C.3    57  VAL57       0.0276
     33  CG1       30.2640  -25.1210  -50.5610 C.3    57  VAL57       0.0022
     34  CG2       29.3510  -24.2760  -48.4040 C.3    57  VAL57       0.0022
     35  N         26.2740  -23.5690  -45.8500 N.3    71  PHE71      -0.1241
     36  CA        26.7330  -24.4670  -44.8050 C.3    71  PHE71       0.1605
     37  C         26.8760  -23.7420  -43.4880 C.2    71  PHE71       0.2264
     38  O         27.4690  -22.6610  -43.4230 O.2    71  PHE71      -0.2867
     39  CB        28.0540  -25.1500  -45.1830 C.3    71  PHE71       0.0534
     40  CG        28.6370  -25.9840  -44.0840 C.ar   71  PHE71      -0.0203
     41  CD1       29.6360  -25.4700  -43.2550 C.ar   71  PHE71      -0.0042
     42  CD2       28.1560  -27.2770  -43.8400 C.ar   71  PHE71      -0.0042
     43  CE1       30.1840  -26.2520  -42.2260 C.ar   71  PHE71      -0.0003
     44  CE2       28.6940  -28.0620  -42.8260 C.ar   71  PHE71      -0.0003
     45  CZ        29.7110  -27.5470  -42.0090 C.ar   71  PHE71      -0.0000
     46  N         26.0450  -24.5770  -38.8430 N.3    73  HIS73      -0.1241
     47  CA        26.0060  -25.5530  -37.7600 C.3    73  HIS73       0.1621
     48  C         24.7200  -25.4520  -37.0050 C.2    73  HIS73       0.2264
     49  O         24.1460  -24.3730  -36.8600 O.2    73  HIS73      -0.2867
     50  CB        27.1890  -25.3510  -36.8110 C.3    73  HIS73       0.0745
     51  CG        28.5080  -25.5530  -37.4780 C.ar   73  HIS73       0.0817
     52  ND1       29.1540  -24.5430  -38.1570 N.ar   73  HIS73      -0.2268
     53  CD2       29.2680  -26.6630  -37.6330 C.ar   73  HIS73       0.1154
     54  CE1       30.2700  -25.0170  -38.6840 C.ar   73  HIS73       0.1986
     55  NE2       30.3670  -26.3000  -38.3730 N.ar   73  HIS73      -0.2212
     56  N         31.2290  -29.2600  -52.4110 N.3   125  ASP125     -0.1225
     57  CA        31.9690  -28.5060  -51.4050 C.3   125  ASP125      0.1790
     58  C         33.4610  -28.8160  -51.6200 C.2   125  ASP125      0.2440
     59  O         33.8890  -29.9640  -51.4530 O.2   125  ASP125     -0.2733
     60  CB        31.5190  -28.8780  -49.9810 C.3   125  ASP125      0.1423
     61  CG        32.2160  -28.0560  -48.9130 C.2   125  ASP125      0.3668
     62  OD1       33.0920  -27.2370  -49.2770 O.co2 125  ASP125     -0.2456
     63  OD2       31.8990  -28.2170  -47.7070 O.co2 125  ASP125     -0.2456
     64  N         34.2420  -27.8040  -52.0590 N.am  126  PRO126     -0.2718
     65  CA        35.6870  -27.9510  -52.3010 C.3   126  PRO126      0.1535
     66  C         36.4520  -28.3810  -51.0610 C.2   126  PRO126      0.2599
     67  O         37.5740  -28.8660  -51.1730 O.2   126  PRO126     -0.2715
     68  CB        36.1280  -26.5370  -52.7030 C.3   126  PRO126      0.0310
     69  CG        34.9150  -25.9410  -53.2910 C.3   126  PRO126      0.0237
     70  CD        33.7810  -26.4530  -52.4120 C.3   126  PRO126      0.0939
     71  N         35.8450  -28.2120  -49.8920 N.am  127  PHE127     -0.1960
     72  CA        36.5460  -28.4810  -48.6430 C.3   127  PHE127      0.1771
     73  C         36.1480  -29.7550  -47.9440 C.2   127  PHE127      0.2619
     74  O         36.7820  -30.1180  -46.9780 O.2   127  PHE127     -0.2715
     75  CB        36.4330  -27.2800  -47.7040 C.3   127  PHE127      0.0574
     76  CG        37.0030  -26.0330  -48.2990 C.ar  127  PHE127     -0.0200
     77  CD1       38.3770  -25.8050  -48.2750 C.ar  127  PHE127     -0.0042
     78  CD2       36.1860  -25.1210  -48.9470 C.ar  127  PHE127     -0.0042
     79  CE1       38.9160  -24.6610  -48.8640 C.ar  127  PHE127     -0.0003
     80  CE2       36.7100  -23.9740  -49.5360 C.ar  127  PHE127     -0.0003
     81  CZ        38.0700  -23.7400  -49.4980 C.ar  127  PHE127     -0.0000
     82  N         35.1400  -30.4660  -48.4460 N.am  128  TRP128     -0.1974
     83  CA        34.6510  -31.6670  -47.7410 C.3   128  TRP128      0.1640
     84  C         33.7680  -32.4940  -48.6550 C.2   128  TRP128      0.2290
     85  O         32.8280  -31.9880  -49.2610 O.2   128  TRP128     -0.2864
     86  CB        33.9030  -31.2590  -46.4600 C.3   128  TRP128      0.0576
     87  CG        33.4520  -32.3740  -45.5280 C.ar  128  TRP128      0.0006
     88  CD1       34.0730  -32.7810  -44.3790 C.ar  128  TRP128      0.0946
     89  CD2       32.2410  -33.1580  -45.6210 C.ar  128  TRP128      0.0152
     90  NE1       33.3440  -33.7810  -43.7710 N.ar  128  TRP128     -0.2442
     91  CE2       32.2190  -34.0300  -44.5120 C.ar  128  TRP128      0.0810
     92  CE3       31.1790  -33.2060  -46.5320 C.ar  128  TRP128      0.0012
     93  CZ2       31.1850  -34.9380  -44.2960 C.ar  128  TRP128      0.0191
     94  CZ3       30.1640  -34.1250  -46.3150 C.ar  128  TRP128      0.0001
     95  CH2       30.1740  -34.9710  -45.2080 C.ar  128  TRP128      0.0015
@<TRIPOS>BOND
     1    69    68    1
     2    69    70    1
     3    68    65    1
     4    31    30    2
     5    70    64    1
     6    56    57    1
     7    65    64    1
     8    65    66    1
     9    64    58   am
    10    30    29    1
    11    58    59    2
    12    58    57    1
    13    26    25    1
    14    57    60    1
    15    67    66    2
    16    66    71   am
    17    33    32    1
    18    29    32    1
    19    29    28    1
    20    25    27    1
    21    25    22    1
    22    60    61    1
    23    32    34    1
    24    71    72    1
    25    28    23   am
    26    80    81   ar
    27    80    78   ar
    28    81    79   ar
    29    23    24    2
    30    23    22    1
    31    62    61   ar
    32    85    84    2
    33    22    21    1
    34    78    76   ar
    35    61    63   ar
    36    79    77   ar
    37    84    83    1
    38    72    73    1
    39    72    75    1
    40    82    73   am
    41    82    83    1
    42    76    77   ar
    43    76    75    1
    44    73    74    2
    45    83    86    1
    46    21    14   am
    47    15    14    2
    48    14    13    1
    49    92    94   ar
    50    92    89   ar
    51    86    87    1
    52    94    95   ar
    53    35    36    1
    54    89    87   ar
    55    89    91   ar
    56    87    88   ar
    57    95    93   ar
    58    13    16    1
    59    13    12    1
    60    39    36    1
    61    39    40    1
    62    16    17    1
    63    36    37    1
    64    91    93   ar
    65    91    90   ar
    66    88    90   ar
    67    10     9    1
    68    40    42   ar
    69    40    41   ar
    70    42    44   ar
    71    19    18    2
    72    17    18    1
    73    37    38    2
    74    18    20   am
    75    41    43   ar
    76     7     8    1
    77     7     6    1
    78     9     8    2
    79     9    11    1
    80    44    45   ar
    81     5     6    1
    82     5     2    1
    83     4     3    2
    84     3     2    1
    85    43    45   ar
    86     2     1    1
    87    46    47    1
    88    54    55   ar
    89    54    52   ar
    90    55    53   ar
    91    52    51   ar
    92    47    48    1
    93    47    50    1
    94    53    51   ar
    95    51    50    1
    96    48    49    2
