@<TRIPOS>MOLECULE
tmp/3cx4A01.pdb
 101 96 0 0 0
SMALL
GASTEIGER

@<TRIPOS>ATOM
      1  N         14.6210  -32.2010  -36.2580 N.3    11  PHE11      -0.1241
      2  CA        14.2840  -31.6070  -34.9970 C.3    11  PHE11       0.1605
      3  C         15.5110  -30.8350  -34.4690 C.2    11  PHE11       0.2264
      4  O         16.6420  -31.2970  -34.6080 O.2    11  PHE11      -0.2867
      5  CB        13.8340  -32.6890  -34.0120 C.3    11  PHE11       0.0534
      6  CG        13.4960  -32.1390  -32.6650 C.ar   11  PHE11      -0.0203
      7  CD1       12.2250  -31.6190  -32.4130 C.ar   11  PHE11      -0.0042
      8  CD2       14.4720  -32.0440  -31.6810 C.ar   11  PHE11      -0.0042
      9  CE1       11.9360  -31.0560  -31.1870 C.ar   11  PHE11      -0.0003
     10  CE2       14.1890  -31.4760  -30.4500 C.ar   11  PHE11      -0.0003
     11  CZ        12.9230  -30.9840  -30.2050 C.ar   11  PHE11      -0.0000
     12  N          9.8270  -30.4110  -38.1330 N.3    15  LYS15      -0.1245
     13  CA         9.4140  -31.7500  -37.7250 C.3    15  LYS15       0.1561
     14  C          7.9530  -32.0290  -38.0710 C.2    15  LYS15       0.2260
     15  O          7.0840  -31.2740  -37.6900 O.2    15  LYS15      -0.2867
     16  CB         9.6080  -31.9340  -36.1930 C.3    15  LYS15       0.0271
     17  CG         8.9600  -33.2160  -35.6440 C.3    15  LYS15       0.0035
     18  CD         9.4040  -33.5340  -34.2040 C.3    15  LYS15       0.0206
     19  CE         8.6140  -34.6890  -33.5810 C.3    15  LYS15       0.1093
     20  NZ         8.9560  -34.8460  -32.1130 N.3    15  LYS15      -0.1314
     21  N         13.1560  -36.4120  -35.5230 N.3    21  ASP21      -0.1239
     22  CA        13.8100  -36.8370  -34.2710 C.3    21  ASP21       0.1674
     23  C         15.1160  -37.6020  -34.5350 C.2    21  ASP21       0.2266
     24  O         16.1230  -37.3970  -33.8520 O.2    21  ASP21      -0.2867
     25  CB        12.8690  -37.7130  -33.4220 C.3    21  ASP21       0.1410
     26  CG        11.6630  -36.9400  -32.8810 C.2    21  ASP21       0.3668
     27  OD1       11.6930  -35.6900  -32.8840 O.co2  21  ASP21      -0.2456
     28  OD2       10.6940  -37.5910  -32.4200 O.co2  21  ASP21      -0.2456
     29  N         17.7320  -35.2590  -36.0210 N.3    24  GLY24      -0.1225
     30  CA        18.1660  -34.3420  -34.9840 C.3    24  GLY24       0.1811
     31  C         19.1350  -34.9250  -33.9620 C.2    24  GLY24       0.2280
     32  O         19.7370  -34.1760  -33.1800 O.2    24  GLY24      -0.2866
     33  N         16.4750  -39.3660  -28.1380 N.3   249  ASP249     -0.1239
     34  CA        17.3000  -38.2200  -27.7750 C.3   249  ASP249      0.1674
     35  C         17.0690  -37.8700  -26.3110 C.2   249  ASP249      0.2266
     36  O         16.0290  -37.3060  -25.9670 O.2   249  ASP249     -0.2867
     37  CB        16.9850  -37.0250  -28.6610 C.3   249  ASP249      0.1410
     38  CG        18.0120  -35.9000  -28.5290 C.2   249  ASP249      0.3668
     39  OD1       18.7220  -35.7890  -27.4930 O.co2 249  ASP249     -0.2456
     40  OD2       18.1040  -35.1250  -29.4990 O.co2 249  ASP249     -0.2456
     41  N         16.2150  -34.3560  -24.9740 N.3   252  ILE252     -0.1231
     42  CA        14.9110  -33.8090  -25.0290 C.3   252  ILE252      0.1692
     43  C         13.8280  -34.6980  -24.4080 C.2   252  ILE252      0.2592
     44  O         12.8940  -34.1720  -23.7900 O.2   252  ILE252     -0.2718
     45  CB        14.5660  -33.1940  -26.4410 C.3   252  ILE252      0.0266
     46  CG1       13.5530  -34.0240  -27.1380 C.3   252  ILE252      0.0019
     47  CG2       15.8030  -32.7070  -27.2810 C.3   252  ILE252      0.0020
     48  CD1       12.2460  -33.5380  -26.7010 C.3   252  ILE252      0.0001
     49  N         13.9890  -36.0280  -24.5050 N.am  253  TRP253     -0.1976
     50  CA        13.0210  -36.9560  -23.9170 C.3   253  TRP253      0.1640
     51  C         13.5380  -37.7320  -22.6860 C.2   253  TRP253      0.2290
     52  O         13.9190  -38.9180  -22.7760 O.2   253  TRP253     -0.2864
     53  CB        12.4710  -37.9290  -24.9790 C.3   253  TRP253      0.0576
     54  CG        11.6670  -37.2650  -26.0770 C.ar  253  TRP253      0.0006
     55  CD1       12.1290  -36.8700  -27.3050 C.ar  253  TRP253      0.0946
     56  CD2       10.2630  -36.9210  -26.0490 C.ar  253  TRP253      0.0152
     57  NE1       11.1160  -36.3020  -28.0310 N.ar  253  TRP253     -0.2442
     58  CE2        9.9590  -36.3250  -27.2930 C.ar  253  TRP253      0.0810
     59  CE3        9.2480  -37.0470  -25.0910 C.ar  253  TRP253      0.0012
     60  CZ2        8.6740  -35.8630  -27.6150 C.ar  253  TRP253      0.0191
     61  CZ3        7.9570  -36.5910  -25.4120 C.ar  253  TRP253      0.0001
     62  CH2        7.6890  -35.9980  -26.6620 C.ar  253  TRP253      0.0015
     63  N          9.8240  -29.0920  -19.7860 N.3   260  LEU260     -0.1245
     64  CA         8.4330  -28.8390  -20.1860 C.3   260  LEU260      0.1561
     65  C          7.4200  -29.4170  -19.2140 C.2   260  LEU260      0.2260
     66  O          6.2220  -29.2090  -19.3600 O.2   260  LEU260     -0.2867
     67  CB         8.1580  -29.4020  -21.5800 C.3   260  LEU260      0.0270
     68  CG         9.0520  -28.7830  -22.6410 C.3   260  LEU260      0.0019
     69  CD1        8.8780  -29.4780  -24.0090 C.3   260  LEU260      0.0001
     70  CD2        8.7630  -27.2690  -22.7240 C.3   260  LEU260      0.0001
     71  N          4.1150  -29.5290  -29.8870 N.3   357  GLU357     -0.1245
     72  CA         5.3520  -30.1550  -29.4560 C.3   357  GLU357      0.1567
     73  C          5.4580  -30.1960  -27.9320 C.2   357  GLU357      0.2260
     74  O          5.7390  -31.2510  -27.3500 O.2   357  GLU357     -0.2867
     75  CB         6.5520  -29.4340  -30.0980 C.3   357  GLU357      0.0388
     76  CG         7.9100  -30.1900  -30.0460 C.3   357  GLU357      0.1160
     77  CD         7.9450  -31.4430  -30.9330 C.2   357  GLU357      0.3649
     78  OE1        8.3580  -32.5220  -30.4260 O.co2 357  GLU357     -0.2457
     79  OE2        7.5610  -31.3440  -32.1270 O.co2 357  GLU357     -0.2457
     80  N          4.8760  -33.5150  -24.5010 N.3   361  HIS361     -0.1241
     81  CA         5.6750  -33.7860  -23.3330 C.3   361  HIS361      0.1621
     82  C          4.8290  -33.8820  -22.0900 C.2   361  HIS361      0.2264
     83  O          5.0080  -34.8060  -21.2870 O.2   361  HIS361     -0.2867
     84  CB         6.7820  -32.7480  -23.1590 C.3   361  HIS361      0.0745
     85  CG         7.9030  -32.9200  -24.1270 C.ar  361  HIS361      0.0817
     86  ND1        9.1330  -33.4260  -23.7570 N.ar  361  HIS361     -0.2268
     87  CD2        7.9760  -32.6870  -25.4600 C.ar  361  HIS361      0.1154
     88  CE1        9.9220  -33.4760  -24.8190 C.ar  361  HIS361      0.1986
     89  NE2        9.2420  -33.0380  -25.8660 N.ar  361  HIS361     -0.2212
     90  N          9.3550  -43.3730  -25.9530 N.3   385  TYR385     -0.1241
     91  CA         9.1690  -42.2440  -25.0260 C.3   385  TYR385      0.1605
     92  C          8.3270  -42.6740  -23.8230 C.2   385  TYR385      0.2264
     93  O          8.6200  -42.2890  -22.6950 O.2   385  TYR385     -0.2867
     94  CB         8.5350  -41.0050  -25.7280 C.3   385  TYR385      0.0534
     95  CG         9.2970  -40.4920  -26.9510 C.ar  385  TYR385     -0.0201
     96  CD1       10.6460  -40.8070  -27.1280 C.ar  385  TYR385     -0.0009
     97  CD2        8.6840  -39.6740  -27.8990 C.ar  385  TYR385     -0.0009
     98  CE1       11.3520  -40.3750  -28.2190 C.ar  385  TYR385      0.0417
     99  CE2        9.3930  -39.2010  -29.0160 C.ar  385  TYR385      0.0417
    100  CZ        10.7330  -39.5620  -29.1700 C.ar  385  TYR385      0.1957
    101  OH        11.4910  -39.1270  -30.2480 O.3   385  TYR385     -0.2866
@<TRIPOS>BOND
     1    12    13    1
     2    14    13    1
     3    14    15    2
     4    13    16    1
     5     1     2    1
     6    16    17    1
     7    29    30    1
     8    17    18    1
     9    21    22    1
    10     2     3    1
    11     2     5    1
    12    30    31    1
    13     4     3    2
    14    23    22    1
    15    23    24    2
    16    22    25    1
    17    18    19    1
    18     5     6    1
    19    31    32    2
    20    19    20    1
    21    25    26    1
    22    27    26   ar
    23    26    28   ar
    24     6     7   ar
    25     6     8   ar
    26     7     9   ar
    27    79    77   ar
    28     8    10   ar
    29     9    11   ar
    30    77    78   ar
    31    77    76    1
    32    10    11   ar
    33   101   100    1
    34    75    76    1
    35    75    72    1
    36    71    72    1
    37    40    38   ar
    38    72    73    1
    39   100    99   ar
    40   100    98   ar
    41    99    97   ar
    42    37    38    1
    43    37    34    1
    44    38    39   ar
    45    98    96   ar
    46    33    34    1
    47    57    55   ar
    48    57    58   ar
    49    73    74    2
    50    97    95   ar
    51    34    35    1
    52    60    58   ar
    53    60    62   ar
    54    55    54   ar
    55    58    56   ar
    56    47    45    1
    57    46    48    1
    58    46    45    1
    59    96    95   ar
    60    95    94    1
    61    62    61   ar
    62    45    42    1
    63    35    36    2
    64    54    56   ar
    65    54    53    1
    66    56    59   ar
    67    90    91    1
    68    89    87   ar
    69    89    88   ar
    70    94    91    1
    71    87    85   ar
    72    61    59   ar
    73    42    41    1
    74    42    43    1
    75    91    92    1
    76    53    50    1
    77    88    86   ar
    78    49    43   am
    79    49    50    1
    80    80    81    1
    81    43    44    2
    82    85    86   ar
    83    85    84    1
    84    69    68    1
    85    50    51    1
    86    92    93    2
    87    81    84    1
    88    81    82    1
    89    52    51    2
    90    70    68    1
    91    68    67    1
    92    82    83    2
    93    67    64    1
    94    64    63    1
    95    64    65    1
    96    66    65    2
