@<TRIPOS>MOLECULE
tmp/3cx4A03.pdb
 99 99 0 0 0
SMALL
GASTEIGER

@<TRIPOS>ATOM
      1  N         -0.4350  -32.5430  -52.0450 N.3   102  ALA102     -0.1231
      2  CA         0.9590  -32.6210  -52.4450 C.3   102  ALA102      0.1694
      3  C          1.2820  -31.5230  -53.4560 C.2   102  ALA102      0.2592
      4  O          0.5120  -31.2800  -54.3750 O.2   102  ALA102     -0.2718
      5  CB         1.2630  -33.9920  -53.0370 C.3   102  ALA102      0.0304
      6  N          2.4150  -30.8530  -53.2800 N.am  103  TYR103     -0.1962
      7  CA         2.8270  -29.8400  -54.2350 C.3   103  TYR103      0.1771
      8  C          3.0340  -30.4910  -55.5790 C.2   103  TYR103      0.2620
      9  O          3.6130  -31.5800  -55.6660 O.2   103  TYR103     -0.2715
     10  CB         4.1230  -29.1680  -53.7960 C.3   103  TYR103      0.0574
     11  CG         3.9690  -28.2780  -52.5990 C.ar  103  TYR103     -0.0198
     12  CD1        4.5440  -28.6190  -51.3810 C.ar  103  TYR103     -0.0009
     13  CD2        3.2500  -27.0860  -52.6850 C.ar  103  TYR103     -0.0009
     14  CE1        4.4120  -27.8030  -50.2810 C.ar  103  TYR103      0.0417
     15  CE2        3.1110  -26.2550  -51.5880 C.ar  103  TYR103      0.0417
     16  CZ         3.6950  -26.6210  -50.3880 C.ar  103  TYR103      0.1957
     17  OH         3.5720  -25.8010  -49.2900 O.3   103  TYR103     -0.2866
     18  N          2.5930  -29.8070  -56.6300 N.am  104  THR104     -0.1951
     19  CA         2.6470  -30.3750  -57.9730 C.3   104  THR104      0.1897
     20  C          4.0550  -30.4330  -58.5050 C.2   104  THR104      0.2313
     21  O          4.3390  -31.2170  -59.4200 O.2   104  THR104     -0.2863
     22  CB         1.7320  -29.6280  -58.9730 C.3   104  THR104      0.1794
     23  OG1        2.1790  -28.2750  -59.1140 O.3   104  THR104     -0.2208
     24  CG2        0.2620  -29.6460  -58.4790 C.3   104  THR104      0.0378
     25  N          6.5640  -31.3760  -56.5220 N.3   106  ASN106     -0.1225
     26  CA         7.3140  -32.2780  -55.6280 C.3   106  ASN106      0.1785
     27  C          8.4130  -33.0810  -56.2950 C.2   106  ASN106      0.2597
     28  O          9.4480  -33.3110  -55.6830 O.2   106  ASN106     -0.2718
     29  CB         6.4010  -33.2400  -54.8730 C.3   106  ASN106      0.1169
     30  CG         5.9710  -32.6870  -53.5510 C.2   106  ASN106      0.2627
     31  OD1        6.2870  -31.5420  -53.2300 O.2   106  ASN106     -0.2716
     32  ND2        5.2160  -33.4720  -52.7800 N.am  106  ASN106     -0.0877
     33  N          8.1700  -33.5190  -57.5320 N.am  107  VAL107     -0.1980
     34  CA         9.1280  -34.3490  -58.2740 C.3   107  VAL107      0.1595
     35  C         10.4320  -33.5830  -58.4460 C.2   107  VAL107      0.2287
     36  O         11.5270  -34.1470  -58.3150 O.2   107  VAL107     -0.2864
     37  CB         8.5500  -34.8360  -59.6690 C.3   107  VAL107      0.0276
     38  CG1        8.2540  -33.6540  -60.6350 C.3   107  VAL107      0.0022
     39  CG2        9.4570  -35.8730  -60.3300 C.3   107  VAL107      0.0022
     40  N          5.7980  -41.6140  -55.8560 N.3   168  MET168     -0.1230
     41  CA         5.3500  -41.9100  -57.2170 C.3   168  MET168      0.1702
     42  C          5.1040  -40.6490  -58.0170 C.2   168  MET168      0.2592
     43  O          4.3600  -39.7570  -57.5870 O.2   168  MET168     -0.2718
     44  CB         4.0300  -42.6840  -57.1980 C.3   168  MET168      0.0401
     45  CG         4.0320  -43.9110  -56.3290 C.3   168  MET168      0.0596
     46  SD         4.8900  -45.2250  -57.1600 S.3   168  MET168     -0.1393
     47  CE         3.5380  -45.9080  -58.1490 C.3   168  MET168      0.0692
     48  N          5.7010  -40.6100  -59.2000 N.am  169  PHE169     -0.1962
     49  CA         5.4570  -39.5430  -60.1600 C.3   169  PHE169      0.1771
     50  C          5.3510  -40.1270  -61.5690 C.2   169  PHE169      0.2619
     51  O          5.9970  -41.1400  -61.8890 O.2   169  PHE169     -0.2715
     52  CB         6.5740  -38.4880  -60.0820 C.3   169  PHE169      0.0574
     53  CG         6.8270  -37.9970  -58.6930 C.ar  169  PHE169     -0.0200
     54  CD1        7.7620  -38.6230  -57.8810 C.ar  169  PHE169     -0.0042
     55  CD2        6.1110  -36.9310  -58.1870 C.ar  169  PHE169     -0.0042
     56  CE1        7.9750  -38.1850  -56.5890 C.ar  169  PHE169     -0.0003
     57  CE2        6.3230  -36.4860  -56.9070 C.ar  169  PHE169     -0.0003
     58  CZ         7.2630  -37.1100  -56.1010 C.ar  169  PHE169     -0.0000
     59  N          4.5170  -39.5120  -62.4020 N.am  170  TYR170     -0.1974
     60  CA         4.3260  -40.0040  -63.7740 C.3   170  TYR170      0.1639
     61  C          5.6380  -40.1260  -64.5330 C.2   170  TYR170      0.2290
     62  O          6.5400  -39.3020  -64.3770 O.2   170  TYR170     -0.2864
     63  CB         3.3450  -39.1310  -64.5480 C.3   170  TYR170      0.0560
     64  CG         1.9590  -39.1540  -63.9620 C.ar  170  TYR170     -0.0198
     65  CD1        1.2790  -37.9740  -63.6930 C.ar  170  TYR170     -0.0009
     66  CD2        1.3280  -40.3650  -63.6610 C.ar  170  TYR170     -0.0009
     67  CE1        0.0040  -37.9900  -63.1410 C.ar  170  TYR170      0.0417
     68  CE2        0.0480  -40.3960  -63.1120 C.ar  170  TYR170      0.0417
     69  CZ        -0.6060  -39.2030  -62.8530 C.ar  170  TYR170      0.1957
     70  OH        -1.8790  -39.2060  -62.3010 O.3   170  TYR170     -0.2866
     71  N          6.6320  -39.4190  -67.4460 N.3   172  HIS172     -0.1226
     72  CA         7.0840  -38.3840  -68.3710 C.3   172  HIS172      0.1752
     73  C          8.1050  -37.4510  -67.7100 C.2   172  HIS172      0.2596
     74  O          8.8920  -36.7850  -68.3870 O.2   172  HIS172     -0.2718
     75  CB         5.9030  -37.6190  -68.9910 C.3   172  HIS172      0.0759
     76  CG         5.1190  -36.7910  -68.0200 C.ar  172  HIS172      0.0818
     77  ND1        5.4890  -35.5100  -67.6660 N.ar  172  HIS172     -0.2268
     78  CD2        3.9640  -37.0450  -67.3560 C.ar  172  HIS172      0.1154
     79  CE1        4.6070  -35.0180  -66.8100 C.ar  172  HIS172      0.1986
     80  NE2        3.6730  -35.9300  -66.6030 N.ar  172  HIS172     -0.2212
     81  N          8.1100  -37.4390  -66.3760 N.am  173  HIS173     -0.1975
     82  CA         9.0760  -36.6460  -65.6240 C.3   173  HIS173      0.1656
     83  C         10.5140  -37.1410  -65.7560 C.2   173  HIS173      0.2291
     84  O         11.4290  -36.4460  -65.3570 O.2   173  HIS173     -0.2864
     85  CB         8.6750  -36.5570  -64.1610 C.3   173  HIS173      0.0771
     86  CG         7.4780  -35.6970  -63.9260 C.ar  173  HIS173      0.0820
     87  ND1        7.4640  -34.3510  -64.2210 N.ar  173  HIS173     -0.2267
     88  CD2        6.2560  -35.9860  -63.4170 C.ar  173  HIS173      0.1154
     89  CE1        6.2850  -33.8460  -63.9000 C.ar  173  HIS173      0.1986
     90  NE2        5.5340  -34.8160  -63.4100 N.ar  173  HIS173     -0.2212
     91  N          5.0490  -46.1420  -63.1150 N.3   194  GLN194     -0.1245
     92  CA         5.5080  -44.7930  -62.7470 C.3   194  GLN194      0.1566
     93  C          6.9540  -44.7190  -62.2610 C.2   194  GLN194      0.2260
     94  O          7.6460  -45.7370  -62.1180 O.2   194  GLN194     -0.2867
     95  CB         4.6110  -44.1660  -61.6990 C.3   194  GLN194      0.0367
     96  CG         3.1450  -44.1510  -62.0430 C.3   194  GLN194      0.0905
     97  CD         2.3800  -43.2810  -61.0850 C.2   194  GLN194      0.2608
     98  OE1        1.2980  -43.6380  -60.6330 O.2   194  GLN194     -0.2717
     99  NE2        2.9520  -42.1370  -60.7440 N.am  194  GLN194     -0.0878
@<TRIPOS>BOND
     1    75    72    1
     2    75    76    1
     3    74    73    2
     4    72    73    1
     5    72    71    1
     6    76    77   ar
     7    76    78   ar
     8    73    81   am
     9    77    79   ar
    10    78    80   ar
    11    79    80   ar
    12    81    82    1
    13    83    82    1
    14    83    84    2
    15    82    85    1
    16    63    64    1
    17    63    60    1
    18    61    62    2
    19    61    60    1
    20    87    86   ar
    21    87    89   ar
    22    85    86    1
    23    64    65   ar
    24    64    66   ar
    25    86    88   ar
    26    89    90   ar
    27    60    59    1
    28    65    67   ar
    29    66    68   ar
    30    88    90   ar
    31    67    69   ar
    32    91    92    1
    33    68    69   ar
    34    69    70    1
    35    92    93    1
    36    92    95    1
    37    59    50   am
    38    93    94    2
    39    96    95    1
    40    96    97    1
    41    51    50    2
    42    50    49    1
    43    97    99   am
    44    97    98    2
    45    38    37    1
    46    39    37    1
    47    49    52    1
    48    49    48    1
    49    52    53    1
    50    37    34    1
    51    21    20    2
    52    48    42   am
    53    23    22    1
    54    22    24    1
    55    22    19    1
    56    53    55   ar
    57    53    54   ar
    58    20    19    1
    59    35    36    2
    60    35    34    1
    61    34    33    1
    62    55    57   ar
    63    47    46    1
    64    42    43    2
    65    42    41    1
    66    19    18    1
    67    54    56   ar
    68    33    27   am
    69    41    44    1
    70    41    40    1
    71    44    45    1
    72    46    45    1
    73    57    58   ar
    74    18     8   am
    75    56    58   ar
    76    25    26    1
    77    27    28    2
    78    27    26    1
    79     9     8    2
    80    26    29    1
    81     8     7    1
    82    29    30    1
    83     4     3    2
    84     7    10    1
    85     7     6    1
    86    10    11    1
    87    30    31    2
    88    30    32   am
    89     3     6   am
    90     3     2    1
    91     5     2    1
    92    13    11   ar
    93    13    15   ar
    94    11    12   ar
    95     2     1    1
    96    15    16   ar
    97    12    14   ar
    98    16    14   ar
    99    16    17    1
