@<TRIPOS>MOLECULE
tmp/3cx8A00.pdb
 202 196 0 0 0
SMALL
GASTEIGER

@<TRIPOS>ATOM
      1  N         16.5510    7.0170   19.5760 N.3    11  GLY11      -0.1210
      2  CA        15.1640    7.3440   19.8230 C.3    11  GLY11       0.1956
      3  C         14.8530    8.7980   19.5140 C.2    11  GLY11       0.2612
      4  O         15.6800    9.6820   19.7570 O.2    11  GLY11      -0.2717
      5  N         13.6640    9.0310   18.9610 N.am   12  GLU12      -0.1965
      6  CA        13.1810   10.3640   18.6270 C.3    12  GLU12       0.1733
      7  C         13.9610   11.1250   17.5700 C.2    12  GLU12       0.2617
      8  O         13.9170   12.3560   17.5380 O.2    12  GLU12      -0.2715
      9  CB        13.0870   11.2210   19.8980 C.3    12  GLU12       0.0429
     10  CG        12.2040   10.6210   20.9720 C.3    12  GLU12       0.1163
     11  CD        12.1770   11.4470   22.2500 C.2    12  GLU12       0.3649
     12  OE1       11.2640   12.2880   22.4000 O.co2  12  GLU12      -0.2457
     13  OE2       13.0730   11.2590   23.1030 O.co2  12  GLU12      -0.2457
     14  N         14.6570   10.4170   16.6900 N.am   13  SER13      -0.1936
     15  CA        15.4270   11.0950   15.6510 C.3    13  SER13       0.2055
     16  C         14.5640   11.4980   14.4470 C.2    13  SER13       0.2644
     17  O         14.9710   12.3410   13.6380 O.2    13  SER13      -0.2714
     18  CB        16.6150   10.2250   15.2180 C.3    13  SER13       0.2130
     19  OG        16.2040    8.9260   14.8390 O.3    13  SER13      -0.2179
     20  N         13.3700   10.9120   14.3450 N.am   14  GLY14      -0.1939
     21  CA        12.4490   11.2490   13.2670 C.3    14  GLY14       0.2014
     22  C         12.1660   10.1690   12.2310 C.2    14  GLY14       0.2639
     23  O         11.5440   10.4420   11.2040 O.2    14  GLY14      -0.2714
     24  N         12.6070    8.9460   12.5000 N.am   15  LYS15      -0.1963
     25  CA        12.4280    7.8340   11.5750 C.3    15  LYS15       0.1728
     26  C         10.9790    7.5760   11.1480 C.2    15  LYS15       0.2617
     27  O         10.6860    7.4720    9.9560 O.2    15  LYS15      -0.2715
     28  CB        13.0280    6.5650   12.1960 C.3    15  LYS15       0.0311
     29  CG        14.5210    6.6920   12.4950 C.3    15  LYS15       0.0038
     30  CD        15.1080    5.4160   13.0810 C.3    15  LYS15       0.0206
     31  CE        14.4880    5.0750   14.4310 C.3    15  LYS15       0.1093
     32  NZ        14.8000    6.0890   15.4830 N.3    15  LYS15      -0.1314
     33  N         10.0750    7.4680   12.1140 N.am   16  SER16      -0.1936
     34  CA         8.6700    7.2150   11.8060 C.3    16  SER16       0.2055
     35  C          7.9930    8.3890   11.1020 C.2    16  SER16       0.2643
     36  O          7.0370    8.2110   10.3370 O.2    16  SER16      -0.2714
     37  CB         7.9200    6.8500   13.0860 C.3    16  SER16       0.2130
     38  OG         8.3170    5.5690   13.5040 O.3    16  SER16      -0.2179
     39  N          8.4950    9.5890   11.3590 N.am   17  THR17      -0.1950
     40  CA         7.9450   10.7770   10.7260 C.3    17  THR17       0.1897
     41  C          8.3440   10.7270    9.2550 C.2    17  THR17       0.2313
     42  O          7.5400   11.0270    8.3640 O.2    17  THR17      -0.2863
     43  CB         8.5020   12.0590   11.3870 C.3    17  THR17       0.1794
     44  OG1        8.1690   12.0470   12.7820 O.3    17  THR17      -0.2208
     45  CG2        7.9080   13.3090   10.7320 C.3    17  THR17       0.0378
     46  N          9.1380   18.5880   21.7610 N.3   126  GLU126     -0.1231
     47  CA         8.5720   19.8700   21.3500 C.3   126  GLU126      0.1699
     48  C          7.2300   19.8120   20.6160 C.2   126  GLU126      0.2592
     49  O          6.5850   20.8450   20.4350 O.2   126  GLU126     -0.2718
     50  CB         9.5840   20.6680   20.5130 C.3   126  GLU126      0.0402
     51  CG        10.5660   19.8400   19.7170 C.3   126  GLU126      0.1161
     52  CD        11.6530   19.2190   20.5850 C.2   126  GLU126      0.3649
     53  OE1       12.3840   19.9750   21.2620 O.co2 126  GLU126     -0.2457
     54  OE2       11.7760   17.9760   20.5820 O.co2 126  GLU126     -0.2457
     55  N          6.8030   18.6260   20.1870 N.am  127  SER127     -0.1952
     56  CA         5.5100   18.5180   19.5100 C.3   127  SER127      0.1924
     57  C          4.4000   18.8170   20.5160 C.2   127  SER127      0.2314
     58  O          3.2930   19.2220   20.1480 O.2   127  SER127     -0.2863
     59  CB         5.3150   17.1200   18.9200 C.3   127  SER127      0.2116
     60  OG         5.5080   16.1220   19.9060 O.3   127  SER127     -0.2180
     61  N          1.8530   14.1240   11.3700 N.3   151  LEU151     -0.1231
     62  CA         3.3090   14.0570   11.2910 C.3   151  LEU151      0.1693
     63  C          3.9410   14.3870   12.6330 C.2   151  LEU151      0.2592
     64  O          4.9870   13.8500   12.9730 O.2   151  LEU151     -0.2718
     65  CB         3.8150   15.0290   10.2290 C.3   151  LEU151      0.0284
     66  CG         3.5540   14.5600    8.7980 C.3   151  LEU151      0.0019
     67  CD1        3.7110   15.7260    7.8240 C.3   151  LEU151      0.0001
     68  CD2        4.5130   13.4220    8.4610 C.3   151  LEU151      0.0001
     69  N          3.2940   15.2660   13.3930 N.am  152  LEU152     -0.1966
     70  CA         3.7950   15.6610   14.7010 C.3   152  LEU152      0.1728
     71  C          3.3950   14.7170   15.8340 C.2   152  LEU152      0.2616
     72  O          4.0460   14.6950   16.8790 O.2   152  LEU152     -0.2715
     73  CB         3.3380   17.0800   15.0250 C.3   152  LEU152      0.0311
     74  CG         4.2570   18.1100   14.3710 C.3   152  LEU152      0.0022
     75  CD1        3.5290   19.4000   14.1450 C.3   152  LEU152      0.0001
     76  CD2        5.4870   18.3110   15.2580 C.3   152  LEU152      0.0001
     77  N          2.3330   13.9420   15.6220 N.am  153  ALA153     -0.1963
     78  CA         1.8520   12.9990   16.6280 C.3   153  ALA153      0.1728
     79  C          2.9920   12.0640   17.0070 C.2   153  ALA153      0.2616
     80  O          3.6750   11.5100   16.1370 O.2   153  ALA153     -0.2715
     81  CB         0.6740   12.1990   16.0870 C.3   153  ALA153      0.0334
     82  N          3.1780   11.8760   18.3100 N.am  154  ARG154     -0.1963
     83  CA         4.2660   11.0530   18.8190 C.3   154  ARG154      0.1729
     84  C          3.8990    9.7140   19.4570 C.2   154  ARG154      0.2616
     85  O          3.0150    9.6370   20.3080 O.2   154  ARG154     -0.2715
     86  CB         5.0760   11.8810   19.8290 C.3   154  ARG154      0.0348
     87  CG         6.0130   11.0800   20.7350 C.3   154  ARG154      0.0492
     88  CD         7.1970   10.4540   19.9910 C.3   154  ARG154      0.2205
     89  NE         8.0390    9.6930   20.9160 N.pl3 154  ARG154     -0.0865
     90  CZ         9.0550    8.9110   20.5620 C.cat 154  ARG154      0.5346
     91  NH1        9.3930    8.7660   19.2820 N.pl3 154  ARG154      0.1354
     92  NH2        9.7300    8.2590   21.4980 N.pl3 154  ARG154      0.1354
     93  N          4.6080    8.6690   19.0320 N.am  155  ARG155     -0.1964
     94  CA         4.4510    7.3300   19.5810 C.3   155  ARG155      0.1714
     95  C          5.7770    6.5960   19.3790 C.2   155  ARG155      0.2458
     96  O          6.2700    6.4890   18.2520 O.2   155  ARG155     -0.2730
     97  CB         3.3200    6.5790   18.8770 C.3   155  ARG155      0.0347
     98  CG         3.0850    5.1790   19.3970 C.3   155  ARG155      0.0492
     99  CD         1.8220    4.5730   18.7930 C.3   155  ARG155      0.2205
    100  NE         0.6260    5.2590   19.2760 N.pl3 155  ARG155     -0.0865
    101  CZ         0.1100    5.0910   20.4900 C.cat 155  ARG155      0.5346
    102  NH1        0.6850    4.2510   21.3440 N.pl3 155  ARG155      0.1354
    103  NH2       -0.9680    5.7690   20.8580 N.pl3 155  ARG155      0.1354
    104  N          6.3880    6.1010   20.4710 N.am  156  PRO156     -0.2716
    105  CA         7.6640    5.3780   20.3470 C.3   156  PRO156      0.1536
    106  C          7.4260    4.0850   19.5890 C.2   156  PRO156      0.2599
    107  O          6.4560    3.3820   19.8570 O.2   156  PRO156     -0.2715
    108  CB         8.0770    5.1420   21.7990 C.3   156  PRO156      0.0310
    109  CG         6.7510    5.0060   22.5020 C.3   156  PRO156      0.0237
    110  CD         5.9170    6.1110   21.8680 C.3   156  PRO156      0.0939
    111  N          8.3110    3.7740   18.6470 N.am  157  THR157     -0.1951
    112  CA         8.1800    2.5730   17.8310 C.3   157  THR157      0.1897
    113  C          8.7210    1.3080   18.4720 C.2   157  THR157      0.2313
    114  O          9.8160    1.2940   19.0350 O.2   157  THR157     -0.2863
    115  CB         8.8740    2.7680   16.4750 C.3   157  THR157      0.1794
    116  OG1        8.2600    3.8660   15.8120 O.3   157  THR157     -0.2208
    117  CG2        8.7360    1.5300   15.5910 C.3   157  THR157      0.0378
    118  N         11.3000    0.5810    9.1020 N.3   176  ASP176     -0.1225
    119  CA        11.3640    1.4570   10.2640 C.3   176  ASP176      0.1805
    120  C         11.5040    0.5650   11.5070 C.2   176  ASP176      0.2598
    121  O         10.9090   -0.5120   11.5800 O.2   176  ASP176     -0.2718
    122  CB        10.0860    2.3100   10.3130 C.3   176  ASP176      0.1424
    123  CG        10.0740    3.3130   11.4600 C.2   176  ASP176      0.3668
    124  OD1       11.1590    3.7880   11.8550 O.co2 176  ASP176     -0.2456
    125  OD2        8.9670    3.6340   11.9540 O.co2 176  ASP176     -0.2456
    126  N         12.3310    0.9880   12.4560 N.am  177  VAL177     -0.1966
    127  CA        12.5390    0.2290   13.6910 C.3   177  VAL177      0.1727
    128  C         12.6400    1.2070   14.8540 C.2   177  VAL177      0.2617
    129  O         12.7990    2.4050   14.6390 O.2   177  VAL177     -0.2715
    130  CB        13.8490   -0.6180   13.6410 C.3   177  VAL177      0.0290
    131  CG1       13.7580   -1.6590   12.5300 C.3   177  VAL177      0.0023
    132  CG2       15.0550    0.2890   13.4040 C.3   177  VAL177      0.0023
    133  N         12.5440    0.6920   16.0770 N.am  178  GLY178     -0.1940
    134  CA        12.6310    1.5490   17.2440 C.3   178  GLY178      0.2014
    135  C         14.0780    1.9070   17.5040 C.2   178  GLY178      0.2639
    136  O         14.9560    1.0660   17.3360 O.2   178  GLY178     -0.2714
    137  N         14.3270    3.1470   17.9210 N.am  179  GLY179     -0.1939
    138  CA        15.6840    3.5890   18.1820 C.3   179  GLY179      0.2014
    139  C         16.0920    3.6900   19.6400 C.2   179  GLY179      0.2638
    140  O         17.2710    3.9060   19.9320 O.2   179  GLY179     -0.2714
    141  N         15.1450    3.5740   20.5680 N.am  180  GLN180     -0.1977
    142  CA        15.5170    3.6350   21.9740 C.3   180  GLN180      0.1601
    143  C         16.2690    2.3390   22.2720 C.2   180  GLN180      0.2287
    144  O         16.0400    1.3200   21.6130 O.2   180  GLN180     -0.2864
    145  CB        14.2730    3.8330   22.8450 C.3   180  GLN180      0.0394
    146  CG        13.6220    5.1910   22.5360 C.3   180  GLN180      0.0908
    147  CD        12.4860    5.5680   23.4620 C.2   180  GLN180      0.2608
    148  OE1       11.6900    4.7230   23.8660 O.2   180  GLN180     -0.2717
    149  NE2       12.3890    6.8580   23.7840 N.am  180  GLN180     -0.0878
    150  N         18.5380   15.7840   10.9410 N.3   245  ASN245     -0.1225
    151  CA        17.1380   16.1690   11.0140 C.3   245  ASN245      0.1785
    152  C         16.8190   17.2270   12.0860 C.2   245  ASN245      0.2597
    153  O         17.6720   17.5800   12.9030 O.2   245  ASN245     -0.2718
    154  CB        16.3280   14.8810   11.2200 C.3   245  ASN245      0.1169
    155  CG        14.8490   15.0750   11.0240 C.2   245  ASN245      0.2627
    156  OD1       14.4130   15.6870   10.0480 O.2   245  ASN245     -0.2716
    157  ND2       14.0570   14.5280   11.9470 N.am  245  ASN245     -0.0877
    158  N         15.5850   17.7230   12.0740 N.am  246  LYS246     -0.1980
    159  CA        15.1370   18.7460   13.0160 C.3   246  LYS246      0.1596
    160  C         15.9570   20.0250   12.8570 C.2   246  LYS246      0.2287
    161  O         16.3140   20.6790   13.8370 O.2   246  LYS246     -0.2864
    162  CB        15.2120   18.2270   14.4640 C.3   246  LYS246      0.0298
    163  CG        14.2340   17.0720   14.7290 C.3   246  LYS246      0.0038
    164  CD        14.1210   16.6900   16.2010 C.3   246  LYS246      0.0206
    165  CE        13.1110   15.5640   16.3790 C.3   246  LYS246      0.1093
    166  NZ        12.9230   15.1510   17.8000 N.3   246  LYS246     -0.1314
    167  N         14.9440   22.7530   11.6590 N.3   248  ASP248     -0.1225
    168  CA        14.0930   23.8470   12.1030 C.3   248  ASP248      0.1805
    169  C         14.2500   24.1000   13.6010 C.2   248  ASP248      0.2597
    170  O         14.2730   25.2490   14.0450 O.2   248  ASP248     -0.2718
    171  CB        12.6240   23.5440   11.7530 C.3   248  ASP248      0.1424
    172  CG        12.0810   22.2830   12.4410 C.2   248  ASP248      0.3668
    173  OD1       12.8080   21.2810   12.5620 O.co2 248  ASP248     -0.2456
    174  OD2       10.8990   22.2910   12.8380 O.co2 248  ASP248     -0.2456
    175  N         14.3770   23.0290   14.3790 N.am  249  LEU249     -0.1979
    176  CA        14.5380   23.1690   15.8220 C.3   249  LEU249      0.1596
    177  C         15.9420   23.6670   16.1690 C.2   249  LEU249      0.2287
    178  O         16.1250   24.4030   17.1340 O.2   249  LEU249     -0.2864
    179  CB        14.2780   21.8340   16.5320 C.3   249  LEU249      0.0297
    180  CG        12.8740   21.2320   16.4210 C.3   249  LEU249      0.0022
    181  CD1       12.8100   19.9940   17.3040 C.3   249  LEU249      0.0001
    182  CD2       11.8020   22.2490   16.8550 C.3   249  LEU249      0.0001
    183  N         14.1460   18.3780    7.7430 N.3   298  THR298     -0.1203
    184  CA        13.0800   18.7180    8.6700 C.3   298  THR298      0.1994
    185  C         12.0000   17.7110    8.2600 C.2   298  THR298      0.2618
    186  O         11.2080   17.9670    7.3560 O.2   298  THR298     -0.2717
    187  CB        12.5940   20.1640    8.4680 C.3   298  THR298      0.1784
    188  OG1       13.6350   21.0680    8.8600 O.3   298  THR298     -0.2211
    189  CG2       11.3620   20.4400    9.3110 C.3   298  THR298      0.0376
    190  N         12.0020   16.5480    8.9120 N.am  299  ALA299     -0.1965
    191  CA        11.0640   15.4690    8.5960 C.3   299  ALA299      0.1728
    192  C          9.5830   15.8330    8.5930 C.2   299  ALA299      0.2616
    193  O          8.7900   15.1860    7.9120 O.2   299  ALA299     -0.2715
    194  CB        11.3010   14.2810    9.5350 C.3   299  ALA299      0.0334
    195  N          9.1950   16.8460    9.3570 N.am  300  ILE300     -0.1977
    196  CA         7.7920   17.2420    9.3880 C.3   300  ILE300      0.1596
    197  C          7.4020   18.1630    8.2370 C.2   300  ILE300      0.2287
    198  O          6.2250   18.4830    8.0590 O.2   300  ILE300     -0.2864
    199  CB         7.4280   17.9340   10.7150 C.3   300  ILE300      0.0276
    200  CG1        8.2730   19.1950   10.8990 C.3   300  ILE300      0.0022
    201  CG2        7.6300   16.9500   11.8770 C.3   300  ILE300      0.0022
    202  CD1        7.7760   20.0830   12.0410 C.3   300  ILE300      0.0001
@<TRIPOS>BOND
     1   186   185    2
     2   183   184    1
     3    67    66    1
     4   193   192    2
     5   198   197    2
     6   197   196    1
     7   185   184    1
     8   185   190   am
     9    42    41    2
    10    68    66    1
    11   187   184    1
    12   187   188    1
    13   187   189    1
    14   192   191    1
    15   192   195   am
    16   191   190    1
    17   191   194    1
    18    66    65    1
    19   118   119    1
    20    41    40    1
    21   195   196    1
    22   196   199    1
    23    27    26    2
    24   156   155    2
    25    65    62    1
    26   119   122    1
    27   119   120    1
    28   122   123    1
    29    36    35    2
    30   199   200    1
    31   199   201    1
    32    40    39    1
    33    40    43    1
    34    45    43    1
    35   200   202    1
    36   150   151    1
    37   151   154    1
    38   151   152    1
    39   155   154    1
    40   155   157   am
    41    35    39   am
    42    35    34    1
    43    26    25    1
    44    26    33   am
    45    23    22    2
    46    62    61    1
    47    62    63    1
    48    43    44    1
    49   123   124   ar
    50   123   125   ar
    51   120   121    2
    52   120   126   am
    53    25    28    1
    54    25    24    1
    55   167   168    1
    56   171   168    1
    57   171   172    1
    58    34    33    1
    59    34    37    1
    60   158   152   am
    61   158   159    1
    62   152   153    2
    63   168   169    1
    64    28    29    1
    65    22    24   am
    66    22    21    1
    67   172   173   ar
    68   172   174   ar
    69   126   127    1
    70    29    30    1
    71   131   130    1
    72    63    64    2
    73    63    69   am
    74   160   159    1
    75   160   161    2
    76   159   162    1
    77    30    31    1
    78    37    38    1
    79    21    20    1
    80    69    70    1
    81   132   130    1
    82   169   170    2
    83   169   175   am
    84    17    16    2
    85   130   127    1
    86   127   128    1
    87    75    74    1
    88    20    16   am
    89    74    73    1
    90    74    76    1
    91   175   176    1
    92    31    32    1
    93    16    15    1
    94   162   163    1
    95   129   128    2
    96    70    73    1
    97    70    71    1
    98   163   164    1
    99    19    18    1
   100   128   133   am
   101    18    15    1
   102   117   115    1
   103    77    71   am
   104    77    78    1
   105    15    14    1
   106   116   115    1
   107   176   177    1
   108   176   179    1
   109    71    72    2
   110   133   134    1
   111    81    78    1
   112    80    79    2
   113   177   178    2
   114   164   165    1
   115   165   166    1
   116   180   179    1
   117   180   182    1
   118   180   181    1
   119   115   112    1
   120    78    79    1
   121    14     7   am
   122    79    82   am
   123   134   135    1
   124   136   135    2
   125   135   137   am
   126     8     7    2
   127     7     6    1
   128   112   113    1
   129   112   111    1
   130   137   138    1
   131   138   139    1
   132    96    95    2
   133    82    83    1
   134   113   114    2
   135     6     5    1
   136     6     9    1
   137   111   106   am
   138    99   100    1
   139    99    98    1
   140    83    84    1
   141    83    86    1
   142    97    98    1
   143    97    94    1
   144    59    56    1
   145    59    60    1
   146     5     3   am
   147    93    84   am
   148    93    94    1
   149   100   101    2
   150    91    90    1
   151    95    94    1
   152    95   104   am
   153    84    85    2
   154    56    55    1
   155    56    57    1
   156     3     4    2
   157     3     2    1
   158     1     2    1
   159   106   107    2
   160   106   105    1
   161   139   140    2
   162   139   141   am
   163    51    50    1
   164    51    52    1
   165    86    87    1
   166     9    10    1
   167    88    87    1
   168    88    89    1
   169    58    57    2
   170    55    48   am
   171   105   104    1
   172   105   108    1
   173    49    48    2
   174   104   110    1
   175   101   103    1
   176   101   102    1
   177    50    47    1
   178    90    89    2
   179    90    92    1
   180   141   142    1
   181    54    52   ar
   182    52    53   ar
   183    48    47    1
   184    10    11    1
   185    47    46    1
   186   144   143    2
   187   108   109    1
   188   110   109    1
   189   142   143    1
   190   142   145    1
   191    11    12   ar
   192    11    13   ar
   193   146   145    1
   194   146   147    1
   195   147   149   am
   196   147   148    2
