@<TRIPOS>MOLECULE
tmp/3cx9A00.pdb
 139 129 0 0 0
SMALL
GASTEIGER

@<TRIPOS>ATOM
      1  N        -57.4800    2.6950  -17.2980 N.3     5  VAL5       -0.1245
      2  CA       -57.0880    3.1360  -18.6380 C.3     5  VAL5        0.1561
      3  C        -57.3310    4.6370  -18.8010 C.2     5  VAL5        0.2260
      4  O        -56.4330    5.3350  -19.2500 O.2     5  VAL5       -0.2867
      5  CB       -57.7590    2.3070  -19.7880 C.3     5  VAL5        0.0252
      6  CG1      -59.1830    2.7390  -20.0360 C.3     5  VAL5        0.0019
      7  CG2      -56.9940    2.4490  -21.0590 C.3     5  VAL5        0.0019
      8  N        -54.4750    6.5370  -17.0720 N.3     8  ARG8       -0.1245
      9  CA       -53.2280    6.5910  -17.8320 C.3     8  ARG8        0.1563
     10  C        -53.3840    7.4850  -19.0640 C.2     8  ARG8        0.2260
     11  O        -52.4560    8.1890  -19.4080 O.2     8  ARG8       -0.2867
     12  CB       -52.7890    5.1940  -18.3060 C.3     8  ARG8        0.0307
     13  CG       -52.5540    4.1490  -17.2380 C.3     8  ARG8        0.0489
     14  CD       -51.3560    4.5130  -16.4080 C.3     8  ARG8        0.2205
     15  NE       -51.0880    3.5030  -15.3890 N.pl3   8  ARG8       -0.0865
     16  CZ       -50.3440    3.7040  -14.3030 C.cat   8  ARG8        0.5346
     17  NH1      -49.7690    4.8850  -14.0540 N.pl3   8  ARG8        0.1354
     18  NH2      -50.1730    2.7170  -13.4450 N.pl3   8  ARG8        0.1354
     19  N        -50.7980   10.3030  -19.1570 N.3    12  LEU12      -0.1245
     20  CA       -49.7090   10.1450  -20.1180 C.3    12  LEU12       0.1561
     21  C        -49.8280   11.1150  -21.2600 C.2    12  LEU12       0.2260
     22  O        -48.7860   11.5360  -21.7940 O.2    12  LEU12      -0.2867
     23  CB       -49.6620    8.7230  -20.6730 C.3    12  LEU12       0.0270
     24  CG       -49.0420    7.7700  -19.6540 C.3    12  LEU12       0.0019
     25  CD1      -49.3000    6.3080  -19.9890 C.3    12  LEU12       0.0001
     26  CD2      -47.5410    8.0330  -19.5420 C.3    12  LEU12       0.0001
     27  N        -49.3610    7.8960  -24.9660 N.3    17  PHE17      -0.1241
     28  CA       -50.1660    6.6970  -24.7820 C.3    17  PHE17       0.1605
     29  C        -50.0930    5.8430  -26.0330 C.2    17  PHE17       0.2264
     30  O        -49.7180    4.6930  -25.9840 O.2    17  PHE17      -0.2867
     31  CB       -51.6160    7.0860  -24.4890 C.3    17  PHE17       0.0534
     32  CG       -52.5220    5.9360  -24.2440 C.ar   17  PHE17      -0.0203
     33  CD1      -52.6680    5.4100  -22.9820 C.ar   17  PHE17      -0.0042
     34  CD2      -53.2470    5.3730  -25.2710 C.ar   17  PHE17      -0.0042
     35  CE1      -53.5090    4.3320  -22.7520 C.ar   17  PHE17      -0.0003
     36  CE2      -54.0880    4.2870  -25.0240 C.ar   17  PHE17      -0.0003
     37  CZ       -54.1970    3.7760  -23.7660 C.ar   17  PHE17      -0.0000
     38  N        -46.6770    4.1480  -26.1620 N.3    20  LEU20      -0.1231
     39  CA       -46.3630    3.0650  -25.2220 C.3    20  LEU20       0.1693
     40  C        -47.2400    1.8570  -25.5030 C.2    20  LEU20       0.2591
     41  O        -46.8340    0.7620  -25.2670 O.2    20  LEU20      -0.2718
     42  CB       -46.5190    3.5290  -23.7810 C.3    20  LEU20       0.0284
     43  CG       -45.4550    4.4940  -23.2650 C.3    20  LEU20       0.0019
     44  CD1      -45.9640    5.0740  -21.9550 C.3    20  LEU20       0.0001
     45  CD2      -44.0850    3.8500  -23.0620 C.3    20  LEU20       0.0001
     46  N        -48.4320    2.0380  -26.0400 N.am   21  VAL21      -0.1980
     47  CA       -49.2330    0.8760  -26.4570 C.3    21  VAL21       0.1595
     48  C        -48.5230    0.1060  -27.6150 C.2    21  VAL21       0.2287
     49  O        -48.3570   -1.1230  -27.5580 O.2    21  VAL21      -0.2864
     50  CB       -50.7000    1.3020  -26.8270 C.3    21  VAL21       0.0276
     51  CG1      -51.5660    0.1100  -27.2500 C.3    21  VAL21       0.0022
     52  CG2      -51.3320    1.9970  -25.6330 C.3    21  VAL21       0.0022
     53  N        -45.5590   -1.6740  -26.0370 N.3    24  ALA24      -0.1245
     54  CA       -46.1100   -2.8000  -25.2600 C.3    24  ALA24       0.1562
     55  C        -46.3520   -3.9850  -26.1850 C.2    24  ALA24       0.2260
     56  O        -45.8250   -5.0640  -25.9490 O.2    24  ALA24      -0.2867
     57  CB       -47.4130   -2.3870  -24.5650 C.3    24  ALA24       0.0290
     58  N        -57.1440    0.2210  -29.2960 N.3    44  VAL44      -0.1245
     59  CA       -56.9730    0.4250  -27.8640 C.3    44  VAL44       0.1561
     60  C        -57.1250    1.9170  -27.5250 C.2    44  VAL44       0.2260
     61  O        -57.6070    2.2610  -26.4490 O.2    44  VAL44      -0.2867
     62  CB       -55.6090   -0.0700  -27.3580 C.3    44  VAL44       0.0252
     63  CG1      -55.5340    0.0300  -25.8450 C.3    44  VAL44       0.0019
     64  CG2      -55.3740   -1.4780  -27.7720 C.3    44  VAL44       0.0019
     65  N        -55.8050   -2.9090  -16.4580 N.3    64  LEU64      -0.1245
     66  CA       -54.9060   -2.7970  -17.5860 C.3    64  LEU64       0.1561
     67  C        -54.5130   -4.1760  -18.0910 C.2    64  LEU64       0.2260
     68  O        -54.6180   -4.4580  -19.3010 O.2    64  LEU64      -0.2867
     69  CB       -53.6830   -1.9900  -17.1900 C.3    64  LEU64       0.0270
     70  CG       -53.7490   -0.5120  -17.5880 C.3    64  LEU64       0.0019
     71  CD1      -53.4370   -0.3290  -19.0930 C.3    64  LEU64       0.0001
     72  CD2      -55.0990    0.0510  -17.2640 C.3    64  LEU64       0.0001
     73  N        -55.2190   -5.7320  -21.7070 N.3    68  PHE68      -0.1241
     74  CA       -54.0360   -6.0400  -22.5050 C.3    68  PHE68       0.1605
     75  C        -54.0120   -7.5100  -23.0030 C.2    68  PHE68       0.2264
     76  O        -53.9150   -7.7720  -24.2180 O.2    68  PHE68      -0.2867
     77  CB       -52.7590   -5.6750  -21.7380 C.3    68  PHE68       0.0534
     78  CG       -51.5220   -5.9380  -22.5090 C.ar   68  PHE68      -0.0203
     79  CD1      -51.0890   -5.0410  -23.4510 C.ar   68  PHE68      -0.0042
     80  CD2      -50.8270   -7.1230  -22.3480 C.ar   68  PHE68      -0.0042
     81  CE1      -49.9540   -5.3140  -24.2200 C.ar   68  PHE68      -0.0003
     82  CE2      -49.6930   -7.4000  -23.1050 C.ar   68  PHE68      -0.0003
     83  CZ       -49.2540   -6.4910  -24.0310 C.ar   68  PHE68      -0.0000
     84  N        -37.2670   -1.4720  -20.8030 N.3   148  TYR148     -0.1241
     85  CA       -38.3290   -0.7210  -20.1330 C.3   148  TYR148      0.1605
     86  C        -38.8950    0.3350  -21.0840 C.2   148  TYR148      0.2264
     87  O        -38.1560    1.1830  -21.5670 O.2   148  TYR148     -0.2867
     88  CB       -37.7650   -0.0670  -18.8730 C.3   148  TYR148      0.0534
     89  CG       -38.7600    0.6940  -18.0730 C.ar  148  TYR148     -0.0201
     90  CD1      -38.6080    2.0510  -17.8730 C.ar  148  TYR148     -0.0009
     91  CD2      -39.8790    0.0700  -17.5410 C.ar  148  TYR148     -0.0009
     92  CE1      -39.5400    2.7800  -17.1550 C.ar  148  TYR148      0.0417
     93  CE2      -40.8260    0.7890  -16.8220 C.ar  148  TYR148      0.0417
     94  CZ       -40.6380    2.1470  -16.6150 C.ar  148  TYR148      0.1957
     95  OH       -41.5300    2.8920  -15.8640 O.3   148  TYR148     -0.2866
     96  N        -41.0260    3.0830  -21.2080 N.3   150  PRO150     -0.2116
     97  CA       -40.7860    4.5420  -21.1020 C.3   150  PRO150      0.1372
     98  C        -39.3650    4.9880  -21.5160 C.2   150  PRO150      0.2244
     99  O        -39.2260    6.0630  -22.0550 O.2   150  PRO150     -0.2868
    100  CB       -41.0530    4.8270  -19.6300 C.3   150  PRO150      0.0268
    101  CG       -42.0640    3.7770  -19.2570 C.3   150  PRO150      0.0207
    102  CD       -41.6500    2.5390  -19.9860 C.3   150  PRO150      0.0892
    103  N        -44.2730   -4.7000  -17.2470 N.3   248  LEU248     -0.1231
    104  CA       -44.2400   -3.2530  -17.4470 C.3   248  LEU248      0.1693
    105  C        -45.1280   -2.4910  -16.5020 C.2   248  LEU248      0.2591
    106  O        -44.6860   -1.5290  -15.9230 O.2   248  LEU248     -0.2718
    107  CB       -44.5720   -2.8970  -18.9130 C.3   248  LEU248      0.0284
    108  CG       -45.1020   -1.5210  -19.3800 C.3   248  LEU248      0.0019
    109  CD1      -44.1500   -0.3450  -19.1010 C.3   248  LEU248      0.0001
    110  CD2      -45.4330   -1.6080  -20.8780 C.3   248  LEU248      0.0001
    111  N        -46.3730   -2.9090  -16.3430 N.am  249  LEU249     -0.1980
    112  CA       -47.3050   -2.1200  -15.5640 C.3   249  LEU249      0.1596
    113  C        -46.9150   -2.0920  -14.0980 C.2   249  LEU249      0.2287
    114  O        -46.8050   -1.0260  -13.4970 O.2   249  LEU249     -0.2864
    115  CB       -48.7080   -2.6240  -15.7600 C.3   249  LEU249      0.0297
    116  CG       -49.2480   -2.1760  -17.1220 C.3   249  LEU249      0.0022
    117  CD1      -50.5050   -2.9290  -17.4670 C.3   249  LEU249      0.0001
    118  CD2      -49.5260   -0.6790  -17.1530 C.3   249  LEU249      0.0001
    119  N        -43.7290    0.0020  -13.5590 N.3   252  ALA252     -0.1245
    120  CA       -43.9740    1.4200  -13.7850 C.3   252  ALA252      0.1562
    121  C        -44.6740    2.0660  -12.5940 C.2   252  ALA252      0.2260
    122  O        -44.3000    3.1590  -12.1990 O.2   252  ALA252     -0.2867
    123  CB       -44.7670    1.6170  -15.0540 C.3   252  ALA252      0.0290
    124  N        -45.4660   12.9900  -14.9370 N.3   281  LEU281     -0.1231
    125  CA       -45.3000   11.6160  -14.4450 C.3   281  LEU281      0.1693
    126  C        -44.2680   10.9000  -15.3000 C.2   281  LEU281      0.2591
    127  O        -43.1630   10.6630  -14.8410 O.2   281  LEU281     -0.2718
    128  CB       -46.6490   10.8750  -14.4040 C.3   281  LEU281      0.0284
    129  CG       -46.7580    9.5430  -13.6280 C.3   281  LEU281      0.0019
    130  CD1      -47.9470    9.5710  -12.6300 C.3   281  LEU281      0.0001
    131  CD2      -46.8880    8.3290  -14.5770 C.3   281  LEU281      0.0001
    132  N        -44.5900   10.6650  -16.5660 N.am  282  LEU282     -0.1980
    133  CA       -43.7440    9.8770  -17.4570 C.3   282  LEU282      0.1596
    134  C        -42.2740   10.1620  -17.3080 C.2   282  LEU282      0.2287
    135  O        -41.4920    9.2410  -17.3150 O.2   282  LEU282     -0.2864
    136  CB       -44.1390   10.0940  -18.9130 C.3   282  LEU282      0.0297
    137  CG       -43.4360    9.2430  -19.9640 C.3   282  LEU282      0.0022
    138  CD1      -43.4170    7.7920  -19.5590 C.3   282  LEU282      0.0001
    139  CD2      -44.1090    9.4210  -21.3140 C.3   282  LEU282      0.0001
@<TRIPOS>BOND
     1    58    59    1
     2    59    60    1
     3    59    62    1
     4    64    62    1
     5    48    49    2
     6    48    47    1
     7    60    61    2
     8    62    63    1
     9    51    50    1
    10    50    47    1
    11    50    52    1
    12    47    46    1
    13    55    56    2
    14    55    54    1
    15    38    39    1
    16    46    40   am
    17    53    54    1
    18    29    30    2
    19    29    28    1
    20    40    41    2
    21    40    39    1
    22    34    36   ar
    23    34    32   ar
    24    54    57    1
    25    39    42    1
    26    36    37   ar
    27    27    28    1
    28    28    31    1
    29    31    32    1
    30    32    33   ar
    31    81    83   ar
    32    81    79   ar
    33    76    75    2
    34    83    82   ar
    35    42    43    1
    36    37    35   ar
    37    79    78   ar
    38    43    45    1
    39    43    44    1
    40    82    80   ar
    41    75    74    1
    42    33    35   ar
    43    78    80   ar
    44    78    77    1
    45    74    77    1
    46    74    73    1
    47    99    98    2
    48    22    21    2
    49    87    86    2
    50    98    97    1
    51   139   137    1
    52    21    20    1
    53    96    97    1
    54    96   102    1
    55    97   100    1
    56    86    85    1
    57     7     5    1
    58   110   108    1
    59    84    85    1
    60    23    20    1
    61    23    24    1
    62    85    88    1
    63    20    19    1
    64     6     5    1
    65    25    24    1
    66   102   101    1
    67   137   138    1
    68   137   136    1
    69     5     2    1
    70    24    26    1
    71   100   101    1
    72    11    10    2
    73   108   109    1
    74   108   107    1
    75    68    67    2
    76     4     3    2
    77    71    70    1
    78    10     9    1
    79   136   133    1
    80   107   104    1
    81    88    89    1
    82     3     2    1
    83     2     1    1
    84    12     9    1
    85    12    13    1
    86    67    66    1
    87    89    90   ar
    88    89    91   ar
    89    90    92   ar
    90     9     8    1
    91    70    72    1
    92    70    69    1
    93    66    69    1
    94    66    65    1
    95    91    93   ar
    96   117   116    1
    97   133   134    1
    98   133   132    1
    99   104   103    1
   100   104   105    1
   101   135   134    2
   102    13    14    1
   103    92    94   ar
   104   118   116    1
   105   116   115    1
   106    93    94   ar
   107    94    95    1
   108   132   126   am
   109   105   111   am
   110   105   106    2
   111    14    15    1
   112   111   112    1
   113   115   112    1
   114   112   113    1
   115    15    16    2
   116   126   127    2
   117   126   125    1
   118   123   120    1
   119   124   125    1
   120   131   129    1
   121   125   128    1
   122   128   129    1
   123    16    17    1
   124    16    18    1
   125   113   114    2
   126   120   119    1
   127   120   121    1
   128   129   130    1
   129   121   122    2
