@<TRIPOS>MOLECULE
tmp/3cx9A05.pdb
 198 188 0 0 0
SMALL
GASTEIGER

@<TRIPOS>ATOM
      1  N        -37.2670   -1.4720  -20.8030 N.3   148  TYR148     -0.1241
      2  CA       -38.3290   -0.7210  -20.1330 C.3   148  TYR148      0.1605
      3  C        -38.8950    0.3350  -21.0840 C.2   148  TYR148      0.2264
      4  O        -38.1560    1.1830  -21.5670 O.2   148  TYR148     -0.2867
      5  CB       -37.7650   -0.0670  -18.8730 C.3   148  TYR148      0.0534
      6  CG       -38.7600    0.6940  -18.0730 C.ar  148  TYR148     -0.0201
      7  CD1      -38.6080    2.0510  -17.8730 C.ar  148  TYR148     -0.0009
      8  CD2      -39.8790    0.0700  -17.5410 C.ar  148  TYR148     -0.0009
      9  CE1      -39.5400    2.7800  -17.1550 C.ar  148  TYR148      0.0417
     10  CE2      -40.8260    0.7890  -16.8220 C.ar  148  TYR148      0.0417
     11  CZ       -40.6380    2.1470  -16.6150 C.ar  148  TYR148      0.1957
     12  OH       -41.5300    2.8920  -15.8640 O.3   148  TYR148     -0.2866
     13  N        -38.3320    4.1730  -21.3040 N.3   151  GLU151     -0.1245
     14  CA       -36.9650    4.5560  -21.7080 C.3   151  GLU151      0.1567
     15  C        -36.8180    4.6090  -23.2380 C.2   151  GLU151      0.2260
     16  O        -36.1430    5.5180  -23.7690 O.2   151  GLU151     -0.2867
     17  CB       -35.8930    3.6330  -21.1120 C.3   151  GLU151      0.0388
     18  CG       -34.6580    4.4210  -20.5670 C.3   151  GLU151      0.1160
     19  CD       -33.3310    3.6240  -20.5760 C.2   151  GLU151      0.3649
     20  OE1      -33.3480    2.3760  -20.4470 O.co2 151  GLU151     -0.2457
     21  OE2      -32.2600    4.2600  -20.7150 O.co2 151  GLU151     -0.2457
     22  N        -27.4330    1.4780  -22.0480 N.3   190  SER190     -0.1217
     23  CA       -28.6010    1.3730  -21.1830 C.3   190  SER190      0.1889
     24  C        -29.1720   -0.0370  -21.2040 C.2   190  SER190      0.2288
     25  O        -29.6400   -0.5260  -20.1870 O.2   190  SER190     -0.2866
     26  CB       -29.6850    2.3810  -21.6080 C.3   190  SER190      0.2089
     27  OG       -30.8520    2.2750  -20.8020 O.3   190  SER190     -0.2183
     28  N        -29.3230   -2.4340  -17.7110 N.3   194  GLN194     -0.1245
     29  CA       -30.5160   -3.1080  -17.1670 C.3   194  GLN194      0.1566
     30  C        -30.3350   -4.6330  -17.0060 C.2   194  GLN194      0.2260
     31  O        -30.6720   -5.1890  -15.9480 O.2   194  GLN194     -0.2867
     32  CB       -31.7690   -2.8170  -18.0190 C.3   194  GLN194      0.0367
     33  CG       -32.1210   -1.3190  -18.1010 C.3   194  GLN194      0.0905
     34  CD       -33.0390   -0.9630  -19.2600 C.2   194  GLN194      0.2608
     35  OE1      -34.1990   -1.4050  -19.3030 O.2   194  GLN194     -0.2717
     36  NE2      -32.5350   -0.1260  -20.1950 N.am  194  GLN194     -0.0878
     37  N        -27.9890   -5.1030  -14.0890 N.3   197  LYS197     -0.1245
     38  CA       -28.7580   -4.8670  -12.8540 C.3   197  LYS197      0.1561
     39  C        -29.4760   -6.1360  -12.3700 C.2   197  LYS197      0.2260
     40  O        -29.3510   -6.5120  -11.2210 O.2   197  LYS197     -0.2867
     41  CB       -29.8270   -3.7960  -13.0980 C.3   197  LYS197      0.0271
     42  CG       -29.8690   -2.7060  -12.0730 C.3   197  LYS197      0.0035
     43  CD       -28.5250   -1.9550  -12.0090 C.3   197  LYS197      0.0206
     44  CE       -28.7120   -0.5620  -11.4140 C.3   197  LYS197      0.1093
     45  NZ       -29.4870    0.3110  -12.3810 N.3   197  LYS197     -0.1314
     46  N        -24.6630   -2.0390   -2.8150 N.3   212  TRP212     -0.1241
     47  CA       -24.4490   -1.1970   -3.9570 C.3   212  TRP212      0.1605
     48  C        -25.3060    0.0450   -3.8570 C.2   212  TRP212      0.2264
     49  O        -24.7950    1.1410   -3.9430 O.2   212  TRP212     -0.2867
     50  CB       -24.7960   -1.9740   -5.2120 C.3   212  TRP212      0.0550
     51  CG       -24.4740   -1.2160   -6.3970 C.ar  212  TRP212      0.0003
     52  CD1      -23.2920   -1.2000   -7.0340 C.ar  212  TRP212      0.0946
     53  CD2      -25.3370   -0.3080   -7.0930 C.ar  212  TRP212      0.0152
     54  NE1      -23.3480   -0.3410   -8.0940 N.ar  212  TRP212     -0.2442
     55  CE2      -24.5960    0.2210   -8.1560 C.ar  212  TRP212      0.0810
     56  CE3      -26.6830    0.0890   -6.9280 C.ar  212  TRP212      0.0012
     57  CZ2      -25.1260    1.1540   -9.0560 C.ar  212  TRP212      0.0191
     58  CZ3      -27.2220    1.0160   -7.8140 C.ar  212  TRP212      0.0001
     59  CH2      -26.4340    1.5470   -8.8690 C.ar  212  TRP212      0.0015
     60  N        -24.4040    4.1290   -3.7370 N.3   216  ARG216     -0.1231
     61  CA       -24.8280    5.0630   -4.7460 C.3   216  ARG216      0.1694
     62  C        -25.7270    6.1560   -4.1650 C.2   216  ARG216      0.2591
     63  O        -25.4820    7.3110   -4.4560 O.2   216  ARG216     -0.2718
     64  CB       -25.4860    4.3720   -5.9510 C.3   216  ARG216      0.0321
     65  CG       -25.2020    5.0370   -7.3570 C.3   216  ARG216      0.0489
     66  CD       -24.6060    6.5000   -7.2650 C.3   216  ARG216      0.2205
     67  NE       -24.5170    7.2400   -8.5360 N.pl3 216  ARG216     -0.0865
     68  CZ       -24.0720    8.5090   -8.6430 C.cat 216  ARG216      0.5346
     69  NH1      -24.0440    9.1260   -9.8210 N.pl3 216  ARG216      0.1354
     70  NH2      -23.6550    9.1860   -7.5700 N.pl3 216  ARG216      0.1354
     71  N        -26.7380    5.8360   -3.3550 N.am  217  LEU217     -0.1980
     72  CA       -27.6870    6.8680   -2.8580 C.3   217  LEU217      0.1596
     73  C        -27.0630    7.8460   -1.8660 C.2   217  LEU217      0.2287
     74  O        -27.4430    9.0030   -1.8040 O.2   217  LEU217     -0.2864
     75  CB       -28.9340    6.2520   -2.2180 C.3   217  LEU217      0.0297
     76  CG       -30.0160    5.6800   -3.1440 C.3   217  LEU217      0.0022
     77  CD1      -31.0770    4.9650   -2.3180 C.3   217  LEU217      0.0001
     78  CD2      -30.6790    6.7000   -3.9610 C.3   217  LEU217      0.0001
     79  N        -25.2580   10.4570   -3.8300 N.3   220  ARG220     -0.1231
     80  CA       -26.2210   11.3100   -4.5030 C.3   220  ARG220      0.1694
     81  C        -26.9980   12.2050   -3.5110 C.2   220  ARG220      0.2592
     82  O        -27.2430   13.3780   -3.7930 O.2   220  ARG220     -0.2718
     83  CB       -27.1950   10.4600   -5.3130 C.3   220  ARG220      0.0321
     84  CG       -27.4520   10.9970   -6.7010 C.3   220  ARG220      0.0489
     85  CD       -26.3010   10.5960   -7.6220 C.3   220  ARG220      0.2205
     86  NE       -26.7080   10.4650   -9.0060 N.pl3 220  ARG220     -0.0865
     87  CZ       -27.5540    9.5370   -9.3990 C.cat 220  ARG220      0.5346
     88  NH1      -28.0550    8.7230   -8.5000 N.pl3 220  ARG220      0.1354
     89  NH2      -27.9400    9.4510  -10.6540 N.pl3 220  ARG220      0.1354
     90  N        -27.3680   11.6740   -2.3530 N.am  221  PHE221     -0.1976
     91  CA       -28.1370   12.4490   -1.3830 C.3   221  PHE221      0.1639
     92  C        -27.4030   12.5410   -0.0460 C.2   221  PHE221      0.2290
     93  O        -27.9100   12.0830    0.9650 O.2   221  PHE221     -0.2864
     94  CB       -29.5240   11.8350   -1.1800 C.3   221  PHE221      0.0560
     95  CG       -30.2970   11.6400   -2.4470 C.ar  221  PHE221     -0.0200
     96  CD1      -30.9460   10.4430   -2.6950 C.ar  221  PHE221     -0.0042
     97  CD2      -30.3760   12.6420   -3.3970 C.ar  221  PHE221     -0.0042
     98  CE1      -31.6520   10.2590   -3.8470 C.ar  221  PHE221     -0.0003
     99  CE2      -31.0900   12.4560   -4.5510 C.ar  221  PHE221     -0.0003
    100  CZ       -31.7270   11.2680   -4.7760 C.ar  221  PHE221     -0.0000
    101  N        -36.0280    1.0880   -3.3970 N.3   236  LEU236     -0.1245
    102  CA       -35.2740    1.0430   -4.6540 C.3   236  LEU236      0.1561
    103  C        -35.0370   -0.3890   -5.0940 C.2   236  LEU236      0.2260
    104  O        -35.0680   -0.6770   -6.2820 O.2   236  LEU236     -0.2867
    105  CB       -33.9080    1.7150   -4.5180 C.3   236  LEU236      0.0270
    106  CG       -33.4900    2.5730   -5.6990 C.3   236  LEU236      0.0019
    107  CD1      -32.0380    2.9380   -5.6230 C.3   236  LEU236      0.0001
    108  CD2      -33.7820    1.8840   -6.9930 C.3   236  LEU236      0.0001
    109  N        -38.2190   -2.2070   -6.2870 N.3   239  VAL239     -0.1231
    110  CA       -38.6090   -1.8710   -7.6560 C.3   239  VAL239      0.1692
    111  C        -37.7470   -2.5710   -8.6920 C.2   239  VAL239      0.2592
    112  O        -38.2860   -3.0370   -9.6890 O.2   239  VAL239     -0.2718
    113  CB       -38.7950   -0.3460   -7.9520 C.3   239  VAL239      0.0266
    114  CG1      -38.5430    0.4920   -6.7510 C.3   239  VAL239      0.0020
    115  CG2      -37.9820    0.0960   -9.1180 C.3   239  VAL239      0.0020
    116  N        -36.4420   -2.6730   -8.4770 N.am  240  HIS240     -0.1976
    117  CA       -35.6030   -3.4100   -9.4190 C.3   240  HIS240      0.1656
    118  C        -35.9980   -4.8740   -9.5070 C.2   240  HIS240      0.2291
    119  O        -36.1500   -5.4300  -10.6000 O.2   240  HIS240     -0.2864
    120  CB       -34.1380   -3.3400   -9.0300 C.3   240  HIS240      0.0771
    121  CG       -33.4310   -2.1800   -9.6250 C.ar  240  HIS240      0.0820
    122  ND1      -33.1640   -1.0410   -8.9030 N.ar  240  HIS240     -0.2267
    123  CD2      -32.9610   -1.9640  -10.8770 C.ar  240  HIS240      0.1154
    124  CE1      -32.5520   -0.1700   -9.6800 C.ar  240  HIS240      0.1986
    125  NE2      -32.4130   -0.7020  -10.8860 N.ar  240  HIS240     -0.2212
    126  N        -39.1050   -4.8160  -11.4270 N.3   243  CYS243     -0.1235
    127  CA       -38.7590   -4.5030  -12.8230 C.3   243  CYS243      0.1677
    128  C        -37.8950   -5.5710  -13.5220 C.2   243  CYS243      0.2270
    129  O        -37.5980   -5.4120  -14.6840 O.2   243  CYS243     -0.2867
    130  CB       -38.0420   -3.1530  -12.9140 C.3   243  CYS243      0.0956
    131  SG       -39.0530   -1.6620  -12.5110 S.3   243  CYS243     -0.0801
    132  N        -43.9530   -2.6290  -12.8390 N.3   251  CYS251     -0.1235
    133  CA       -42.6520   -1.9660  -12.7110 C.3   251  CYS251      0.1677
    134  C        -42.8060   -0.4620  -12.7280 C.2   251  CYS251      0.2270
    135  O        -42.1260    0.2480  -12.0060 O.2   251  CYS251     -0.2867
    136  CB       -41.7310   -2.4190  -13.8500 C.3   251  CYS251      0.0956
    137  SG       -40.2060   -1.4270  -14.1380 S.3   251  CYS251     -0.0801
    138  N        -42.0520    2.5460   -9.8360 N.3   255  ARG255     -0.1245
    139  CA       -41.2560    3.7120  -10.1670 C.3   255  ARG255      0.1563
    140  C        -42.0330    5.0070   -9.9390 C.2   255  ARG255      0.2260
    141  O        -41.4920    5.9640   -9.4280 O.2   255  ARG255     -0.2867
    142  CB       -40.7720    3.6380  -11.5970 C.3   255  ARG255      0.0307
    143  CG       -39.4970    2.8720  -11.7640 C.3   255  ARG255      0.0489
    144  CD       -39.2180    2.6250  -13.2220 C.3   255  ARG255      0.2205
    145  NE       -38.8220    3.8640  -13.8970 N.pl3 255  ARG255     -0.0865
    146  CZ       -37.5640    4.2540  -14.1070 C.cat 255  ARG255      0.5346
    147  NH1      -37.3250    5.4030  -14.7210 N.pl3 255  ARG255      0.1354
    148  NH2      -36.5420    3.5010  -13.7210 N.pl3 255  ARG255      0.1354
    149  N        -42.2090    5.7870   -6.2480 N.3   258  LEU258     -0.1231
    150  CA       -40.9610    6.1930   -5.6600 C.3   258  LEU258      0.1693
    151  C        -40.6810    7.6380   -5.9630 C.2   258  LEU258      0.2591
    152  O        -40.3180    8.3820   -5.0750 O.2   258  LEU258     -0.2718
    153  CB       -39.8170    5.3360   -6.1790 C.3   258  LEU258      0.0284
    154  CG       -38.5230    5.3880   -5.3590 C.3   258  LEU258      0.0019
    155  CD1      -38.8190    4.9390   -3.9000 C.3   258  LEU258      0.0001
    156  CD2      -37.4230    4.5450   -6.0140 C.3   258  LEU258      0.0001
    157  N        -40.8560    8.0430   -7.2110 N.am  259  ALA259     -0.1980
    158  CA       -40.6660    9.4480   -7.5980 C.3   259  ALA259      0.1597
    159  C        -41.6310   10.3320   -6.8190 C.2   259  ALA259      0.2287
    160  O        -41.3250   11.4710   -6.4600 O.2   259  ALA259     -0.2864
    161  CB       -40.8680    9.6270   -9.1300 C.3   259  ALA259      0.0319
    162  N        -40.2390   10.6010   -3.3660 N.3   262  ILE262     -0.1245
    163  CA       -39.0360   11.4450   -3.3560 C.3   262  ILE262      0.1561
    164  C        -39.3840   12.9420   -3.4100 C.2   262  ILE262      0.2260
    165  O        -38.8220   13.7480   -2.6530 O.2   262  ILE262     -0.2867
    166  CB       -38.0420   11.0390   -4.4580 C.3   262  ILE262      0.0252
    167  CG1      -37.3610    9.7310   -4.0650 C.3   262  ILE262      0.0019
    168  CG2      -36.9590   12.0650   -4.6400 C.3   262  ILE262      0.0019
    169  CD1      -36.5900    9.0390   -5.1980 C.3   262  ILE262      0.0001
    170  N        -39.4620   10.0170  -12.9670 N.3   285  SER285     -0.1202
    171  CA       -38.5910    9.0010  -12.3950 C.3   285  SER285      0.2020
    172  C        -37.3010    8.8200  -13.1960 C.2   285  SER285      0.2618
    173  O        -36.2720    8.4170  -12.6570 O.2   285  SER285     -0.2717
    174  CB       -39.3060    7.6620  -12.2670 C.3   285  SER285      0.2103
    175  OG       -39.2900    6.9760  -13.4910 O.3   285  SER285     -0.2182
    176  N        -37.3600    9.0860  -14.4890 N.am  286  HIS286     -0.1975
    177  CA       -36.1960    8.9000  -15.3060 C.3   286  HIS286      0.1656
    178  C        -35.2560    9.9660  -14.8730 C.2   286  HIS286      0.2291
    179  O        -34.0520    9.7600  -14.7790 O.2   286  HIS286     -0.2864
    180  CB       -36.5330    9.0930  -16.7690 C.3   286  HIS286      0.0771
    181  CG       -35.3350    9.1350  -17.6570 C.ar  286  HIS286      0.0820
    182  ND1      -34.6850   10.3100  -17.9640 N.ar  286  HIS286     -0.2267
    183  CD2      -34.6760    8.1510  -18.3140 C.ar  286  HIS286      0.1154
    184  CE1      -33.6710   10.0470  -18.7700 C.ar  286  HIS286      0.1986
    185  NE2      -33.6510    8.7450  -19.0090 N.ar  286  HIS286     -0.2212
    186  N        -35.1330   11.8340  -11.8430 N.3   288  ILE288     -0.1231
    187  CA       -34.5640   11.6500  -10.5260 C.3   288  ILE288      0.1692
    188  C        -33.3810   10.6870  -10.6410 C.2   288  ILE288      0.2591
    189  O        -32.3700   10.8440   -9.9780 O.2   288  ILE288     -0.2718
    190  CB       -35.5820   11.0650   -9.5280 C.3   288  ILE288      0.0266
    191  CG1      -36.7810   11.9920   -9.3500 C.3   288  ILE288      0.0019
    192  CG2      -34.9260   10.8060   -8.1910 C.3   288  ILE288      0.0020
    193  CD1      -37.9910   11.2730   -8.8180 C.3   288  ILE288      0.0001
    194  N        -33.5160    9.6810  -11.4890 N.am  289  ALA289     -0.1980
    195  CA       -32.5380    8.6270  -11.5590 C.3   289  ALA289      0.1597
    196  C        -31.2210    9.1430  -12.1090 C.2   289  ALA289      0.2287
    197  O        -30.1800    8.6030  -11.7630 O.2   289  ALA289     -0.2864
    198  CB       -33.0540    7.4770  -12.3770 C.3   289  ALA289      0.0319
@<TRIPOS>BOND
     1    16    15    2
     2    15    14    1
     3    22    23    1
     4    14    13    1
     5    14    17    1
     6    26    23    1
     7    26    27    1
     8     4     3    2
     9    24    23    1
    10    24    25    2
    11    17    18    1
    12     3     2    1
    13     1     2    1
    14    21    19   ar
    15    19    18    1
    16    19    20   ar
    17    36    34   am
    18     2     5    1
    19    35    34    2
    20    34    33    1
    21   185   184   ar
    22   185   183   ar
    23     5     6    1
    24   184   182   ar
    25   183   181   ar
    26    33    32    1
    27     6     7   ar
    28     6     8   ar
    29    32    29    1
    30   182   181   ar
    31     7     9   ar
    32    28    29    1
    33   181   180    1
    34     8    10   ar
    35    29    30    1
    36     9    11   ar
    37    30    31    2
    38    10    11   ar
    39   180   177    1
    40    11    12    1
    41   177   178    1
    42   177   176    1
    43   178   179    2
    44   147   146    1
    45   129   128    2
    46   176   172   am
    47   137   136    1
    48   137   131    1
    49   146   145    2
    50   146   148    1
    51    37    38    1
    52   145   144    1
    53   136   133    1
    54   128   127    1
    55   175   174    1
    56   144   143    1
    57   172   173    2
    58   172   171    1
    59    41    38    1
    60    41    42    1
    61   170   171    1
    62   130   127    1
    63   130   131    1
    64    38    39    1
    65   132   133    1
    66   127   126    1
    67   134   133    1
    68   134   135    2
    69   171   174    1
    70    45    44    1
    71   198   195    1
    72    39    40    2
    73   196   197    2
    74   196   195    1
    75    42    43    1
    76    43    44    1
    77   186   187    1
    78   143   142    1
    79   142   139    1
    80   195   194    1
    81   194   188   am
    82   125   123   ar
    83   125   124   ar
    84   123   121   ar
    85    89    87    1
    86   188   187    1
    87   188   189    2
    88   119   118    2
    89   187   190    1
    90   139   140    1
    91   139   138    1
    92   140   141    2
    93    69    68    1
    94   112   111    2
    95   124   122   ar
    96   121   120    1
    97   121   122   ar
    98   190   191    1
    99   190   192    1
   100   118   117    1
   101   117   120    1
   102   117   116    1
   103    87    86    2
   104    87    88    1
   105   191   193    1
   106   161   158    1
   107   115   113    1
   108    57    59   ar
   109    57    55   ar
   110    86    85    1
   111    59    58   ar
   112   111   116   am
   113   111   110    1
   114    68    67    2
   115    68    70    1
   116    67    66    1
   117    55    54   ar
   118    55    53   ar
   119    54    52   ar
   120   113   110    1
   121   113   114    1
   122    58    56   ar
   123   110   109    1
   124    85    84    1
   125   158   157    1
   126   158   159    1
   127    65    66    1
   128    65    64    1
   129   157   151   am
   130    53    56   ar
   131    53    51   ar
   132    52    51   ar
   133   108   106    1
   134   159   160    2
   135    84    83    1
   136    51    50    1
   137   104   103    2
   138   149   150    1
   139   153   150    1
   140   153   154    1
   141   156   154    1
   142   151   150    1
   143   151   152    2
   144    64    61    1
   145   106   107    1
   146   106   105    1
   147   154   155    1
   148    83    80    1
   149    50    47    1
   150   169   167    1
   151   103   102    1
   152   100    99   ar
   153   100    98   ar
   154    61    62    1
   155    61    60    1
   156   102   105    1
   157   102   101    1
   158   168   166    1
   159    99    97   ar
   160    80    79    1
   161    80    81    1
   162   166   167    1
   163   166   163    1
   164    63    62    2
   165    62    71   am
   166    78    76    1
   167    47    48    1
   168    47    46    1
   169    49    48    2
   170    98    96   ar
   171    82    81    2
   172    81    90   am
   173   164   163    1
   174   164   165    2
   175    97    95   ar
   176   162   163    1
   177    71    72    1
   178    76    77    1
   179    76    75    1
   180    72    75    1
   181    72    73    1
   182    96    95   ar
   183    95    94    1
   184    90    91    1
   185    73    74    2
   186    91    94    1
   187    91    92    1
   188    92    93    2
