@<TRIPOS>MOLECULE
tmp/3cxaA00.pdb
 89 88 0 0 0
SMALL
GASTEIGER

@<TRIPOS>ATOM
      1  N         58.7970   35.8150   37.3810 N.3    37  HIS37      -0.1226
      2  CA        58.5050   35.4770   36.0020 C.3    37  HIS37       0.1752
      3  C         58.0780   36.7940   35.3240 C.2    37  HIS37       0.2597
      4  O         57.6530   37.7550   35.9870 O.2    37  HIS37      -0.2718
      5  CB        57.3840   34.4440   35.9270 C.3    37  HIS37       0.0759
      6  CG        56.0460   34.9630   36.3040 C.ar   37  HIS37       0.0818
      7  ND1       54.9510   34.1470   36.5420 N.ar   37  HIS37      -0.2268
      8  CD2       55.6510   36.2200   36.5460 C.ar   37  HIS37       0.1154
      9  CE1       53.9470   34.9040   36.9340 C.ar   37  HIS37       0.1986
     10  NE2       54.3510   36.1590   36.9470 N.ar   37  HIS37      -0.2212
     11  N         58.1610   36.8380   34.0030 N.am   38  THR38      -0.1939
     12  CA        57.7890   38.0250   33.2420 C.3    38  THR38       0.2028
     13  C         56.2780   38.0940   33.0110 C.2    38  THR38       0.2642
     14  O         55.7460   39.1110   32.5600 O.2    38  THR38      -0.2714
     15  CB        58.5330   38.0430   31.8720 C.3    38  THR38       0.1808
     16  OG1       58.2510   36.8420   31.1380 O.3    38  THR38      -0.2208
     17  CG2       60.0300   38.1420   32.0900 C.3    38  THR38       0.0379
     18  N         55.5970   36.9970   33.3270 N.am   39  ALA39      -0.1977
     19  CA        54.1520   36.8960   33.1670 C.3    39  ALA39       0.1597
     20  C         53.7170   37.2230   31.7560 C.2    39  ALA39       0.2287
     21  O         52.6140   37.7100   31.5460 O.2    39  ALA39      -0.2864
     22  CB        53.4570   37.8080   34.1330 C.3    39  ALA39       0.0319
     23  N         65.5380   43.0440   34.7970 N.3    71  TYR71      -0.1241
     24  CA        66.2470   41.8920   35.3460 C.3    71  TYR71       0.1605
     25  C         67.7040   41.7750   34.9440 C.2    71  TYR71       0.2264
     26  O         68.1020   42.2280   33.8730 O.2    71  TYR71      -0.2867
     27  CB        65.5030   40.6070   34.9560 C.3    71  TYR71       0.0534
     28  CG        63.9960   40.7400   35.0150 C.ar   71  TYR71      -0.0201
     29  CD1       63.2560   41.0290   33.8800 C.ar   71  TYR71      -0.0009
     30  CD2       63.3130   40.6010   36.2150 C.ar   71  TYR71      -0.0009
     31  CE1       61.8720   41.1730   33.9370 C.ar   71  TYR71       0.0417
     32  CE2       61.9300   40.7440   36.2830 C.ar   71  TYR71       0.0417
     33  CZ        61.2190   41.0270   35.1410 C.ar   71  TYR71       0.1957
     34  OH        59.8530   41.1430   35.2130 O.3    71  TYR71      -0.2866
     35  N         52.0120   30.5050   36.4490 N.3   112  MET112     -0.1245
     36  CA        51.0160   30.4020   37.5050 C.3   112  MET112      0.1570
     37  C         50.6000   28.9300   37.5270 C.2   112  MET112      0.2261
     38  O         50.5320   28.2910   38.5900 O.2   112  MET112     -0.2867
     39  CB        49.8130   31.2890   37.1980 C.3   112  MET112      0.0387
     40  CG        48.9390   31.5430   38.4100 C.3   112  MET112      0.0595
     41  SD        49.8570   32.4010   39.7000 S.3   112  MET112     -0.1393
     42  CE        49.9090   34.0780   38.9250 C.3   112  MET112      0.0692
     43  N         59.9790   36.4390   44.4090 N.3   146  HIS146     -0.1241
     44  CA        59.6810   37.8750   44.1560 C.3   146  HIS146      0.1621
     45  C         58.5330   38.0220   45.2090 C.2   146  HIS146      0.2264
     46  O         58.3300   39.0670   45.7260 O.2   146  HIS146     -0.2867
     47  CB        59.2350   38.1350   42.7110 C.3   146  HIS146      0.0745
     48  CG        59.2190   39.6060   42.2190 C.ar  146  HIS146      0.0817
     49  ND1       58.6650   39.8840   41.0220 N.ar  146  HIS146     -0.2268
     50  CD2       59.7830   40.8200   42.6050 C.ar  146  HIS146      0.1154
     51  CE1       58.8730   41.1500   40.6350 C.ar  146  HIS146      0.1986
     52  NE2       59.5560   41.7570   41.5800 N.ar  146  HIS146     -0.2212
     53  N         57.7840   41.3730   48.1630 N.3   150  GLN150     -0.1231
     54  CA        56.8130   42.3930   47.8490 C.3   150  GLN150      0.1683
     55  C         55.5570   41.6700   47.3840 C.2   150  GLN150      0.2434
     56  O         55.6190   40.6530   46.6990 O.2   150  GLN150     -0.2733
     57  CB        57.3670   43.4520   46.8710 C.3   150  GLN150      0.0380
     58  CG        57.7720   43.0490   45.4630 C.3   150  GLN150      0.0905
     59  CD        58.2560   44.2610   44.6310 C.2   150  GLN150      0.2608
     60  OE1       58.4320   44.1660   43.4160 O.2   150  GLN150     -0.2717
     61  NE2       58.4750   45.3930   45.2950 N.am  150  GLN150     -0.0878
     62  N         54.3880   42.1810   47.7910 N.am  151  PRO151     -0.2718
     63  CA        53.0960   41.5880   47.4520 C.3   151  PRO151      0.1535
     64  C         52.8240   41.3370   45.9810 C.2   151  PRO151      0.2599
     65  O         52.3470   42.2340   45.2830 O.2   151  PRO151     -0.2715
     66  CB        52.0850   42.5750   48.0400 C.3   151  PRO151      0.0310
     67  CG        52.8720   43.3700   49.0380 C.3   151  PRO151      0.0237
     68  CD        54.1920   43.5240   48.3600 C.3   151  PRO151      0.0939
     69  N         53.0990   40.1170   45.5200 N.am  152  THR152     -0.1937
     70  CA        52.8400   39.7390   44.1350 C.3   152  THR152      0.2028
     71  C         52.7870   38.2130   43.9710 C.2   152  THR152      0.2642
     72  O         53.2250   37.4950   44.8470 O.2   152  THR152     -0.2714
     73  CB        53.9190   40.3300   43.2040 C.3   152  THR152      0.1808
     74  OG1       53.7300   39.8100   41.8940 O.3   152  THR152     -0.2208
     75  CG2       55.3150   39.9950   43.6910 C.3   152  THR152      0.0379
     76  N         52.2200   37.7110   42.8760 N.am  153  LEU153     -0.1963
     77  CA        52.2140   36.2570   42.6570 C.3   153  LEU153      0.1728
     78  C         53.4900   35.9000   41.8860 C.2   153  LEU153      0.2616
     79  O         53.8370   34.7340   41.7520 O.2   153  LEU153     -0.2715
     80  CB        51.0480   35.7640   41.7840 C.3   153  LEU153      0.0311
     81  CG        49.5450   35.7320   42.0580 C.3   153  LEU153      0.0022
     82  CD1       49.1890   35.1300   43.4370 C.3   153  LEU153      0.0001
     83  CD2       49.0380   37.1350   41.8890 C.3   153  LEU153      0.0001
     84  N         54.1600   36.9300   41.3710 N.am  154  SER154     -0.1950
     85  CA        55.3830   36.8660   40.5520 C.3   154  SER154      0.1924
     86  C         56.1690   35.5920   40.2410 C.2   154  SER154      0.2314
     87  O         56.4140   35.2980   39.0650 O.2   154  SER154     -0.2863
     88  CB        56.3860   37.9060   41.0290 C.3   154  SER154      0.2116
     89  OG        56.7740   38.6130   39.8700 O.3   154  SER154     -0.2180
@<TRIPOS>BOND
     1    16    15    1
     2    21    20    2
     3    20    19    1
     4    15    17    1
     5    15    12    1
     6    14    13    2
     7    13    12    1
     8    13    18   am
     9    19    18    1
    10    19    22    1
    11    12    11    1
    12    26    25    2
    13    29    31   ar
    14    29    28   ar
    15    31    33   ar
    16    11     3   am
    17    23    24    1
    18    25    24    1
    19    27    28    1
    20    27    24    1
    21    28    30   ar
    22    33    34    1
    23    33    32   ar
    24     3     4    2
    25     3     2    1
    26     5     2    1
    27     5     6    1
    28     2     1    1
    29    30    32   ar
    30     6     7   ar
    31     6     8   ar
    32    35    36    1
    33     7     9   ar
    34     8    10   ar
    35     9    10   ar
    36    39    36    1
    37    39    40    1
    38    36    37    1
    39    37    38    2
    40    40    41    1
    41    42    41    1
    42    87    86    2
    43    89    88    1
    44    86    85    1
    45    85    88    1
    46    85    84    1
    47    51    49   ar
    48    51    52   ar
    49    49    48   ar
    50    84    78   am
    51    52    50   ar
    52    79    78    2
    53    80    81    1
    54    80    77    1
    55    78    77    1
    56    83    81    1
    57    74    73    1
    58    81    82    1
    59    48    50   ar
    60    48    47    1
    61    77    76    1
    62    47    44    1
    63    76    71   am
    64    73    75    1
    65    73    70    1
    66    60    59    2
    67    71    70    1
    68    71    72    2
    69    70    69    1
    70    44    43    1
    71    44    45    1
    72    59    61   am
    73    59    58    1
    74    45    46    2
    75    65    64    2
    76    58    57    1
    77    69    64   am
    78    64    63    1
    79    56    55    2
    80    57    54    1
    81    55    62   am
    82    55    54    1
    83    63    62    1
    84    63    66    1
    85    62    68    1
    86    54    53    1
    87    66    67    1
    88    68    67    1
