@<TRIPOS>MOLECULE
tmp/3cxhC04.pdb
 145 140 0 0 0
SMALL
GASTEIGER

@<TRIPOS>ATOM
      1  N         36.7850    3.9700   71.3830 N.3    27  ASN27      -0.1225
      2  CA        37.6710    2.9340   71.9120 C.3    27  ASN27       0.1785
      3  C         37.4810    1.5910   71.1810 C.2    27  ASN27       0.2597
      4  O         36.6200    1.4740   70.3060 O.2    27  ASN27      -0.2718
      5  CB        37.4710    2.8060   73.4340 C.3    27  ASN27       0.1169
      6  CG        36.0710    2.3720   73.8060 C.2    27  ASN27       0.2627
      7  OD1       35.4830    1.5090   73.1570 O.2    27  ASN27      -0.2716
      8  ND2       35.5360    2.9490   74.8650 N.am   27  ASN27      -0.0877
      9  N         38.2610    0.5820   71.5680 N.am   28  TYR28      -0.1962
     10  CA        38.2290   -0.7530   70.9600 C.3    28  TYR28       0.1771
     11  C         36.8710   -1.4470   70.8340 C.2    28  TYR28       0.2619
     12  O         36.7230   -2.3880   70.0530 O.2    28  TYR28      -0.2715
     13  CB        39.2310   -1.6770   71.6590 C.3    28  TYR28       0.0574
     14  CG        40.6550   -1.4660   71.1940 C.ar   28  TYR28      -0.0198
     15  CD1       41.0800   -1.9240   69.9450 C.ar   28  TYR28      -0.0009
     16  CD2       41.5640   -0.7540   71.9750 C.ar   28  TYR28      -0.0009
     17  CE1       42.3750   -1.6700   69.4850 C.ar   28  TYR28       0.0417
     18  CE2       42.8570   -0.4950   71.5250 C.ar   28  TYR28       0.0417
     19  CZ        43.2540   -0.9500   70.2860 C.ar   28  TYR28       0.1957
     20  OH        44.5220   -0.6700   69.8470 O.3    28  TYR28      -0.2866
     21  N         35.8890   -1.0110   71.6170 N.am   29  TRP29      -0.1974
     22  CA        34.5590   -1.5950   71.5380 C.3    29  TRP29       0.1640
     23  C         33.9650   -1.2610   70.1760 C.2    29  TRP29       0.2290
     24  O         33.1100   -1.9860   69.6840 O.2    29  TRP29      -0.2864
     25  CB        33.6530   -1.0690   72.6660 C.3    29  TRP29       0.0576
     26  CG        33.9470   -1.6980   74.0040 C.ar   29  TRP29       0.0006
     27  CD1       34.4600   -1.0840   75.1060 C.ar   29  TRP29       0.0946
     28  CD2       33.7920   -3.0750   74.3490 C.ar   29  TRP29       0.0152
     29  NE1       34.6430   -1.9930   76.1180 N.ar   29  TRP29      -0.2442
     30  CE2       34.2420   -3.2260   75.6810 C.ar   29  TRP29       0.0810
     31  CE3       33.3200   -4.2030   73.6590 C.ar   29  TRP29       0.0012
     32  CZ2       34.2370   -4.4620   76.3440 C.ar   29  TRP29       0.0191
     33  CZ3       33.3150   -5.4390   74.3210 C.ar   29  TRP29       0.0001
     34  CH2       33.7730   -5.5540   75.6510 C.ar   29  TRP29       0.0015
     35  N         34.1760   -3.8860   66.8910 N.3    32  MET32      -0.1245
     36  CA        33.3540   -5.0680   66.6720 C.3    32  MET32       0.1570
     37  C         32.6990   -5.0890   65.2910 C.2    32  MET32       0.2261
     38  O         32.5970   -6.1500   64.6610 O.2    32  MET32      -0.2867
     39  CB        32.2980   -5.1890   67.7750 C.3    32  MET32       0.0387
     40  CG        32.8880   -5.2340   69.1830 C.3    32  MET32       0.0595
     41  SD        34.0010   -6.6540   69.4390 S.3    32  MET32      -0.1393
     42  CE        35.6270   -5.8470   69.2250 C.3    32  MET32       0.0692
     43  N         34.8430   -6.3590   62.6950 N.3    35  LEU35      -0.1245
     44  CA        35.0270   -7.7770   63.0190 C.3    35  LEU35       0.1561
     45  C         33.8310   -8.6070   62.5400 C.2    35  LEU35       0.2260
     46  O         33.9800   -9.7800   62.1740 O.2    35  LEU35      -0.2867
     47  CB        35.2180   -7.9370   64.5260 C.3    35  LEU35       0.0270
     48  CG        36.4320   -8.6990   65.0480 C.3    35  LEU35       0.0019
     49  CD1       37.7210   -8.1870   64.4330 C.3    35  LEU35       0.0001
     50  CD2       36.4660   -8.5700   66.5650 C.3    35  LEU35       0.0001
     51  N         31.8670  -17.5470   66.9120 N.3    88  PHE88      -0.1241
     52  CA        32.5900  -16.2900   67.0740 C.3    88  PHE88       0.1605
     53  C         31.7590  -15.1500   66.5290 C.2    88  PHE88       0.2264
     54  O         31.7500  -14.0540   67.0860 O.2    88  PHE88      -0.2867
     55  CB        33.9450  -16.3420   66.3620 C.3    88  PHE88       0.0534
     56  CG        35.0460  -16.9310   67.1970 C.ar   88  PHE88      -0.0203
     57  CD1       36.1540  -16.1660   67.5410 C.ar   88  PHE88      -0.0042
     58  CD2       34.9700  -18.2440   67.6540 C.ar   88  PHE88      -0.0042
     59  CE1       37.1720  -16.6990   68.3310 C.ar   88  PHE88      -0.0003
     60  CE2       35.9760  -18.7900   68.4390 C.ar   88  PHE88      -0.0003
     61  CZ        37.0860  -18.0100   68.7810 C.ar   88  PHE88      -0.0000
     62  N         29.4280  -14.3390   69.2410 N.3    91  MET91      -0.1230
     63  CA        30.0290  -13.7390   70.4270 C.3    91  MET91       0.1702
     64  C         30.3560  -12.2840   70.1280 C.2    91  MET91       0.2592
     65  O         30.0740  -11.3980   70.9390 O.2    91  MET91      -0.2718
     66  CB        31.2640  -14.5150   70.8800 C.3    91  MET91       0.0401
     67  CG        31.8670  -14.0240   72.1970 C.3    91  MET91       0.0596
     68  SD        30.7580  -13.9990   73.6770 S.3    91  MET91      -0.1393
     69  CE        30.9710  -15.6910   74.3290 C.3    91  MET91       0.0692
     70  N         30.8940  -12.0290   68.9360 N.am   92  VAL92      -0.1980
     71  CA        31.2230  -10.6630   68.5450 C.3    92  VAL92       0.1595
     72  C         29.9390   -9.8480   68.3620 C.2    92  VAL92       0.2287
     73  O         29.8920   -8.6800   68.7230 O.2    92  VAL92      -0.2864
     74  CB        32.0850  -10.6260   67.2670 C.3    92  VAL92       0.0276
     75  CG1       32.4060   -9.1730   66.8690 C.3    92  VAL92       0.0022
     76  CG2       33.3600  -11.3910   67.4950 C.3    92  VAL92       0.0022
     77  N         28.6140   -8.7310   71.7180 N.3    95  MET95      -0.1245
     78  CA        29.4130   -7.6340   72.2450 C.3    95  MET95       0.1570
     79  C         29.0750   -6.3460   71.5050 C.2    95  MET95       0.2261
     80  O         29.0500   -5.2700   72.1000 O.2    95  MET95      -0.2867
     81  CB        30.9090   -7.9480   72.1370 C.3    95  MET95       0.0387
     82  CG        31.3790   -9.0650   73.0530 C.3    95  MET95       0.0595
     83  SD        32.9620   -9.7510   72.4940 S.3    95  MET95      -0.1393
     84  CE        34.0910   -8.7930   73.4010 C.3    95  MET95       0.0692
     85  N         44.0240    0.3480   63.5210 N.3   228  LYS228     -0.1245
     86  CA        43.5450   -0.0210   64.8430 C.3   228  LYS228      0.1561
     87  C         42.6580   -1.2630   64.7080 C.2   228  LYS228      0.2260
     88  O         42.7230   -2.1720   65.5440 O.2   228  LYS228     -0.2867
     89  CB        42.7750    1.1250   65.4920 C.3   228  LYS228      0.0271
     90  CG        42.4610    0.8770   66.9580 C.3   228  LYS228      0.0035
     91  CD        41.8130    2.0820   67.6070 C.3   228  LYS228      0.0206
     92  CE        41.4320    1.7860   69.0450 C.3   228  LYS228      0.1093
     93  NZ        40.8030    2.9560   69.7220 N.3   228  LYS228     -0.1314
     94  N         44.4900   -4.5190   64.5000 N.3   231  VAL231     -0.1231
     95  CA        44.8780   -5.0640   65.7940 C.3   231  VAL231      0.1692
     96  C         43.8710   -6.1130   66.2330 C.2   231  VAL231      0.2592
     97  O         44.2460   -7.2470   66.5280 O.2   231  VAL231     -0.2718
     98  CB        44.9670   -3.9700   66.8710 C.3   231  VAL231      0.0266
     99  CG1       45.0980   -4.5900   68.2430 C.3   231  VAL231      0.0020
    100  CG2       46.1510   -3.0730   66.6010 C.3   231  VAL231      0.0020
    101  N         42.5920   -5.7390   66.2670 N.am  232  THR232     -0.1953
    102  CA        41.5390   -6.6740   66.6640 C.3   232  THR232      0.1897
    103  C         41.3190   -7.8020   65.6490 C.2   232  THR232      0.2313
    104  O         40.9560   -8.9040   66.0360 O.2   232  THR232     -0.2863
    105  CB        40.2000   -5.9560   67.0100 C.3   232  THR232      0.1794
    106  OG1       39.8880   -4.9730   66.0150 O.3   232  THR232     -0.2208
    107  CG2       40.3070   -5.2670   68.3660 C.3   232  THR232      0.0378
    108  N         43.8670  -10.3350   66.5220 N.3   235  LEU235     -0.1231
    109  CA        43.5310  -10.9740   67.7870 C.3   235  LEU235      0.1693
    110  C         42.4060  -11.9800   67.5510 C.2   235  LEU235      0.2592
    111  O         42.5070  -13.1370   67.9660 O.2   235  LEU235     -0.2718
    112  CB        43.1390   -9.9400   68.8370 C.3   235  LEU235      0.0284
    113  CG        42.8020  -10.5140   70.2170 C.3   235  LEU235      0.0019
    114  CD1       43.8770  -11.4980   70.7120 C.3   235  LEU235      0.0001
    115  CD2       42.6170   -9.3610   71.1740 C.3   235  LEU235      0.0001
    116  N         41.3730  -11.5370   66.8270 N.am  236  PHE236     -0.1976
    117  CA        40.2190  -12.3640   66.4730 C.3   236  PHE236      0.1639
    118  C         40.6780  -13.6410   65.7530 C.2   236  PHE236      0.2290
    119  O         40.2030  -14.7400   66.0580 O.2   236  PHE236     -0.2864
    120  CB        39.2560  -11.5560   65.5830 C.3   236  PHE236      0.0560
    121  CG        38.1200  -12.3560   65.0210 C.ar  236  PHE236     -0.0200
    122  CD1       36.8800  -12.3790   65.6680 C.ar  236  PHE236     -0.0042
    123  CD2       38.2850  -13.0940   63.8550 C.ar  236  PHE236     -0.0042
    124  CE1       35.8190  -13.1290   65.1610 C.ar  236  PHE236     -0.0003
    125  CE2       37.2300  -13.8610   63.3250 C.ar  236  PHE236     -0.0003
    126  CZ        35.9890  -13.8780   63.9810 C.ar  236  PHE236     -0.0000
    127  N         42.6170  -16.0550   68.3010 N.3   239  ILE239     -0.1245
    128  CA        41.7440  -16.8230   69.1780 C.3   239  ILE239      0.1561
    129  C         40.9720  -17.8850   68.4000 C.2   239  ILE239      0.2260
    130  O         40.9180  -19.0430   68.8180 O.2   239  ILE239     -0.2867
    131  CB        40.8000  -15.9110   69.9680 C.3   239  ILE239      0.0252
    132  CG1       41.6210  -14.9320   70.8010 C.3   239  ILE239      0.0019
    133  CG2       39.9160  -16.7340   70.9080 C.3   239  ILE239      0.0019
    134  CD1       40.7760  -13.9420   71.5800 C.3   239  ILE239      0.0001
    135  N         40.9450  -22.3690   68.5120 N.3   243  PHE243     -0.1241
    136  CA        39.8290  -23.3150   68.5720 C.3   243  PHE243      0.1605
    137  C         39.8600  -24.2280   67.3550 C.2   243  PHE243      0.2264
    138  O         39.8360  -25.4450   67.4920 O.2   243  PHE243     -0.2867
    139  CB        38.4770  -22.5910   68.6360 C.3   243  PHE243      0.0534
    140  CG        38.1270  -22.0480   69.9990 C.ar  243  PHE243     -0.0203
    141  CD1       38.6580  -20.8350   70.4450 C.ar  243  PHE243     -0.0042
    142  CD2       37.2400  -22.7360   70.8270 C.ar  243  PHE243     -0.0042
    143  CE1       38.3120  -20.3140   71.6970 C.ar  243  PHE243     -0.0003
    144  CE2       36.8800  -22.2200   72.0940 C.ar  243  PHE243     -0.0003
    145  CZ        37.4170  -21.0100   72.5260 C.ar  243  PHE243     -0.0000
@<TRIPOS>BOND
     1    46    45    2
     2    45    44    1
     3    43    44    1
     4    44    47    1
     5   125   123   ar
     6   125   126   ar
     7    85    86    1
     8   123   121   ar
     9   126   124   ar
    10    49    48    1
    11    94    95    1
    12    47    48    1
    13    38    37    2
    14    87    86    1
    15    87    88    2
    16    86    89    1
    17   121   120    1
    18   121   122   ar
    19    48    50    1
    20   124   122   ar
    21    37    36    1
    22    89    90    1
    23   120   117    1
    24   103   104    2
    25   103   102    1
    26   118   119    2
    27   118   117    1
    28    95    96    1
    29    95    98    1
    30   106   105    1
    31    96   101   am
    32    96    97    2
    33   101   102    1
    34    55    52    1
    35    55    56    1
    36   117   116    1
    37   108   109    1
    38    53    52    1
    39    53    54    2
    40   100    98    1
    41   102   105    1
    42    36    35    1
    43    36    39    1
    44   116   110   am
    45    75    74    1
    46    98    99    1
    47    51    52    1
    48    90    91    1
    49   105   107    1
    50    56    57   ar
    51    56    58   ar
    52    74    76    1
    53    74    71    1
    54   137   138    2
    55   137   136    1
    56    57    59   ar
    57   110   109    1
    58   110   111    2
    59    91    92    1
    60    58    60   ar
    61    39    40    1
    62   109   112    1
    63   127   128    1
    64    59    61   ar
    65    72    71    1
    66    72    73    2
    67   129   130    2
    68   129   128    1
    69    60    61   ar
    70   135   136    1
    71    71    70    1
    72   136   139    1
    73   139   140    1
    74   112   113    1
    75    70    64   am
    76    92    93    1
    77   128   131    1
    78    40    41    1
    79    42    41    1
    80    62    63    1
    81    17    15   ar
    82    17    19   ar
    83    24    23    2
    84    20    19    1
    85    15    14   ar
    86   131   132    1
    87   131   133    1
    88   140   141   ar
    89   140   142   ar
    90    12    11    2
    91    64    63    1
    92    64    65    2
    93    23    22    1
    94   113   114    1
    95   113   115    1
    96    19    18   ar
    97     4     3    2
    98    63    66    1
    99   141   143   ar
   100   132   134    1
   101   142   144   ar
   102    11    10    1
   103    11    21   am
   104    66    67    1
   105    10     9    1
   106    10    13    1
   107     3     9   am
   108     3     2    1
   109    14    13    1
   110    14    16   ar
   111     1     2    1
   112    79    80    2
   113    79    78    1
   114    18    16   ar
   115    22    21    1
   116    22    25    1
   117   143   145   ar
   118    77    78    1
   119     2     5    1
   120   144   145   ar
   121    81    78    1
   122    81    82    1
   123    67    68    1
   124    83    82    1
   125    83    84    1
   126    25    26    1
   127     7     6    2
   128     5     6    1
   129    31    33   ar
   130    31    28   ar
   131    68    69    1
   132     6     8   am
   133    26    28   ar
   134    26    27   ar
   135    33    34   ar
   136    28    30   ar
   137    27    29   ar
   138    34    32   ar
   139    30    29   ar
   140    30    32   ar
