@<TRIPOS>MOLECULE
tmp/3cxhC01.pdb
 238 230 0 0 0
SMALL
GASTEIGER

@<TRIPOS>ATOM
      1  N         35.8890   -1.0110   71.6170 N.3    29  TRP29      -0.1227
      2  CA        34.5590   -1.5950   71.5380 C.3    29  TRP29       0.1737
      3  C         33.9650   -1.2610   70.1760 C.2    29  TRP29       0.2595
      4  O         33.1100   -1.9860   69.6840 O.2    29  TRP29      -0.2718
      5  CB        33.6530   -1.0690   72.6660 C.3    29  TRP29       0.0564
      6  CG        33.9470   -1.6980   74.0040 C.ar   29  TRP29       0.0003
      7  CD1       34.4600   -1.0840   75.1060 C.ar   29  TRP29       0.0946
      8  CD2       33.7920   -3.0750   74.3490 C.ar   29  TRP29       0.0152
      9  NE1       34.6430   -1.9930   76.1180 N.ar   29  TRP29      -0.2442
     10  CE2       34.2420   -3.2260   75.6810 C.ar   29  TRP29       0.0810
     11  CE3       33.3200   -4.2030   73.6590 C.ar   29  TRP29       0.0012
     12  CZ2       34.2370   -4.4620   76.3440 C.ar   29  TRP29       0.0191
     13  CZ3       33.3150   -5.4390   74.3210 C.ar   29  TRP29       0.0001
     14  CH2       33.7730   -5.5540   75.6510 C.ar   29  TRP29       0.0015
     15  N         34.4370   -0.1680   69.5710 N.am   30  TRP30      -0.1976
     16  CA        33.9730    0.2610   68.2490 C.3    30  TRP30       0.1640
     17  C         34.6750   -0.5050   67.1330 C.2    30  TRP30       0.2290
     18  O         34.5950   -0.1200   65.9690 O.2    30  TRP30      -0.2864
     19  CB        34.1720    1.7730   68.0470 C.3    30  TRP30       0.0576
     20  CG        32.9950    2.6300   68.4720 C.ar   30  TRP30       0.0006
     21  CD1       32.0480    3.1950   67.6560 C.ar   30  TRP30       0.0946
     22  CD2       32.6600    3.0340   69.8100 C.ar   30  TRP30       0.0152
     23  NE1       31.1460    3.9250   68.4060 N.ar   30  TRP30      -0.2442
     24  CE2       31.4990    3.8430   69.7270 C.ar   30  TRP30       0.0810
     25  CE3       33.2290    2.7900   71.0730 C.ar   30  TRP30       0.0012
     26  CZ2       30.9000    4.4060   70.8570 C.ar   30  TRP30       0.0191
     27  CZ3       32.6400    3.3450   72.1900 C.ar   30  TRP30       0.0001
     28  CH2       31.4830    4.1470   72.0780 C.ar   30  TRP30       0.0015
     29  N         34.1760   -3.8860   66.8910 N.3    32  MET32      -0.1230
     30  CA        33.3540   -5.0680   66.6720 C.3    32  MET32       0.1702
     31  C         32.6990   -5.0890   65.2910 C.2    32  MET32       0.2593
     32  O         32.5970   -6.1500   64.6610 O.2    32  MET32      -0.2718
     33  CB        32.2980   -5.1890   67.7750 C.3    32  MET32       0.0401
     34  CG        32.8880   -5.2340   69.1830 C.3    32  MET32       0.0596
     35  SD        34.0010   -6.6540   69.4390 S.3    32  MET32      -0.1393
     36  CE        35.6270   -5.8470   69.2250 C.3    32  MET32       0.0692
     37  N         32.2660   -3.9180   64.8270 N.am   33  GLY33      -0.1942
     38  CA        31.6250   -3.8170   63.5290 C.3    33  GLY33       0.2014
     39  C         32.4560   -4.4230   62.4160 C.2    33  GLY33       0.2639
     40  O         32.0060   -5.3460   61.7300 O.2    33  GLY33      -0.2714
     41  N         33.6790   -3.9250   62.2580 N.am   34  SER34      -0.1949
     42  CA        34.5840   -4.4340   61.2390 C.3    34  SER34       0.1924
     43  C         34.7920   -5.9290   61.4400 C.2    34  SER34       0.2314
     44  O         34.8230   -6.6850   60.4810 O.2    34  SER34      -0.2863
     45  CB        35.9280   -3.6820   61.2590 C.3    34  SER34       0.2116
     46  OG        36.5670   -3.7680   62.5240 O.3    34  SER34      -0.2180
     47  N         32.6400   -8.0040   62.5650 N.3    36  LEU36      -0.1231
     48  CA        31.4330   -8.6870   62.1110 C.3    36  LEU36       0.1693
     49  C         31.4750   -8.7970   60.5870 C.2    36  LEU36       0.2592
     50  O         31.0160   -9.7880   60.0110 O.2    36  LEU36      -0.2718
     51  CB        30.1780   -7.9530   62.5860 C.3    36  LEU36       0.0284
     52  CG        29.8170   -8.1050   64.0640 C.3    36  LEU36       0.0019
     53  CD1       28.6120   -7.2630   64.4150 C.3    36  LEU36       0.0001
     54  CD2       29.5350   -9.5470   64.3630 C.3    36  LEU36       0.0001
     55  N         32.0700   -7.8010   59.9420 N.am   37  GLY37      -0.1957
     56  CA        32.2050   -7.8380   58.4970 C.3    37  GLY37       0.1869
     57  C         33.1150   -8.9990   58.1390 C.2    37  GLY37       0.2309
     58  O         32.8170   -9.7720   57.2290 O.2    37  GLY37      -0.2863
     59  N         31.2820  -12.3410   58.4210 N.3    40  LEU40      -0.1245
     60  CA        30.4160  -12.6090   57.2740 C.3    40  LEU40       0.1561
     61  C         31.2450  -13.1390   56.0960 C.2    40  LEU40       0.2260
     62  O         30.9050  -14.1590   55.5020 O.2    40  LEU40      -0.2867
     63  CB        29.6700  -11.3360   56.8720 C.3    40  LEU40       0.0270
     64  CG        28.5130  -11.4090   55.8640 C.3    40  LEU40       0.0019
     65  CD1       27.4740  -12.4420   56.3040 C.3    40  LEU40       0.0001
     66  CD2       27.8550  -10.0270   55.7410 C.3    40  LEU40       0.0001
     67  N         31.0410  -15.4310   65.4460 N.3    89  PHE89      -0.1241
     68  CA        30.1820  -14.4500   64.8090 C.3    89  PHE89       0.1605
     69  C         29.1700  -13.9950   65.8530 C.2    89  PHE89       0.2264
     70  O         28.9590  -12.7930   66.0420 O.2    89  PHE89      -0.2867
     71  CB        29.4790  -15.0940   63.6090 C.3    89  PHE89       0.0534
     72  CG        28.9470  -14.1040   62.5900 C.ar   89  PHE89      -0.0203
     73  CD1       28.9810  -12.7370   62.8270 C.ar   89  PHE89      -0.0042
     74  CD2       28.3970  -14.5570   61.3940 C.ar   89  PHE89      -0.0042
     75  CE1       28.4750  -11.8340   61.8880 C.ar   89  PHE89      -0.0003
     76  CE2       27.8870  -13.6630   60.4480 C.ar   89  PHE89      -0.0003
     77  CZ        27.9260  -12.2980   60.6970 C.ar   89  PHE89      -0.0000
     78  N         28.8810  -10.4710   67.8530 N.3    93  MET93      -0.1245
     79  CA        27.6170   -9.7570   67.6770 C.3    93  MET93       0.1570
     80  C         26.9950   -9.3750   69.0150 C.2    93  MET93       0.2261
     81  O         26.4080   -8.2970   69.1370 O.2    93  MET93      -0.2867
     82  CB        26.6140  -10.5680   66.8560 C.3    93  MET93       0.0387
     83  CG        25.4330   -9.7290   66.3610 C.3    93  MET93       0.0595
     84  SD        24.4200  -10.5810   65.1350 S.3    93  MET93      -0.1393
     85  CE        25.5690  -10.8190   63.8190 C.3    93  MET93       0.0692
     86  N         28.7910   -6.4690   70.2120 N.3    96  HIS96      -0.1226
     87  CA        28.4380   -5.3220   69.3800 C.3    96  HIS96       0.1752
     88  C         27.1220   -4.7300   69.8960 C.2    96  HIS96       0.2595
     89  O         27.0060   -3.5240   70.0980 O.2    96  HIS96      -0.2718
     90  CB        28.3090   -5.7860   67.9290 C.3    96  HIS96       0.0759
     91  CG        28.1130   -4.6790   66.9360 C.ar   96  HIS96       0.0818
     92  ND1       28.9690   -3.6150   66.7770 N.ar   96  HIS96      -0.2268
     93  CD2       27.1670   -4.5290   65.9740 C.ar   96  HIS96       0.1154
     94  CE1       28.5230   -2.8850   65.7390 C.ar   96  HIS96       0.1986
     95  NE2       27.4240   -3.4060   65.2200 N.ar   96  HIS96      -0.2212
     96  N         26.1570   -5.6000   70.1770 N.am   97  MET97      -0.1979
     97  CA        24.8660   -5.1720   70.6960 C.3    97  MET97       0.1605
     98  C         25.0310   -4.5930   72.0910 C.2    97  MET97       0.2287
     99  O         24.5430   -3.5040   72.3700 O.2    97  MET97      -0.2864
    100  CB        23.8750   -6.3430   70.7070 C.3    97  MET97       0.0413
    101  CG        23.4300   -6.7600   69.3220 C.3    97  MET97       0.0598
    102  SD        22.7400   -8.4240   69.2050 S.3    97  MET97      -0.1393
    103  CE        21.0220   -8.0850   69.5920 C.3    97  MET97       0.0692
    104  N         27.6090   -3.2680   73.4500 N.3    99  LYS99      -0.1231
    105  CA        28.2870   -1.9830   73.2880 C.3    99  LYS99       0.1693
    106  C         27.2220   -0.9210   73.0280 C.2    99  LYS99       0.2592
    107  O         27.2870    0.1760   73.5670 O.2    99  LYS99      -0.2718
    108  CB        29.2470   -2.0720   72.0880 C.3    99  LYS99       0.0285
    109  CG        30.0750   -0.8340   71.7570 C.3    99  LYS99       0.0035
    110  CD        29.2600    0.3310   71.1840 C.3    99  LYS99       0.0206
    111  CE        29.7250    0.7500   69.8020 C.3    99  LYS99       0.1093
    112  NZ        29.3110   -0.2230   68.7520 N.3    99  LYS99      -0.1314
    113  N         26.2270   -1.2740   72.2190 N.am  100  GLY100     -0.1957
    114  CA        25.1550   -0.3500   71.8740 C.3   100  GLY100      0.1869
    115  C         24.2860    0.0770   73.0340 C.2   100  GLY100      0.2309
    116  O         24.0010    1.2680   73.1900 O.2   100  GLY100     -0.2863
    117  N         23.8140    3.7640   71.7470 N.3   105  SER105     -0.1217
    118  CA        23.9310    3.8300   70.2990 C.3   105  SER105      0.1889
    119  C         22.5850    3.6750   69.6100 C.2   105  SER105      0.2288
    120  O         22.4410    3.9900   68.4340 O.2   105  SER105     -0.2866
    121  CB        24.8750    2.7430   69.8160 C.3   105  SER105      0.2089
    122  OG        26.0940    2.8470   70.5150 O.3   105  SER105     -0.2183
    123  N         20.1480    7.6300   65.7620 N.3   110  ARG110     -0.1245
    124  CA        20.5480    6.3220   65.2780 C.3   110  ARG110      0.1563
    125  C         19.5360    5.1750   65.4390 C.2   110  ARG110      0.2260
    126  O         19.9300    4.0030   65.3770 O.2   110  ARG110     -0.2867
    127  CB        21.9090    5.9600   65.8950 C.3   110  ARG110      0.0307
    128  CG        23.0630    6.7150   65.2520 C.3   110  ARG110      0.0489
    129  CD        24.3940    6.6160   65.9990 C.3   110  ARG110      0.2205
    130  NE        24.5550    7.7990   66.8390 N.pl3 110  ARG110     -0.0865
    131  CZ        25.3720    8.8090   66.5770 C.cat 110  ARG110      0.5346
    132  NH1       25.4150    9.8430   67.4030 N.pl3 110  ARG110      0.1354
    133  NH2       26.1630    8.7800   65.5170 N.pl3 110  ARG110      0.1354
    134  N         19.3920    2.8950   62.4560 N.3   113  LEU113     -0.1231
    135  CA        20.6150    2.0980   62.5090 C.3   113  LEU113      0.1693
    136  C         20.4110    0.8600   63.3970 C.2   113  LEU113      0.2592
    137  O         20.6940   -0.2710   62.9910 O.2   113  LEU113     -0.2718
    138  CB        21.7450    2.9650   63.0440 C.3   113  LEU113      0.0284
    139  CG        23.1520    2.3950   63.1930 C.3   113  LEU113      0.0019
    140  CD1       23.6700    1.8010   61.8800 C.3   113  LEU113      0.0001
    141  CD2       24.0350    3.5380   63.6510 C.3   113  LEU113      0.0001
    142  N         19.8430    1.0860   64.5770 N.am  114  TRP114     -0.1976
    143  CA        19.5540    0.0310   65.5410 C.3   114  TRP114      0.1640
    144  C         18.4970   -0.9550   65.0160 C.2   114  TRP114      0.2290
    145  O         18.6790   -2.1700   65.0980 O.2   114  TRP114     -0.2864
    146  CB        19.0870    0.6820   66.8450 C.3   114  TRP114      0.0576
    147  CG        18.7850   -0.2480   67.9840 C.ar  114  TRP114      0.0006
    148  CD1       17.5480   -0.5930   68.4530 C.ar  114  TRP114      0.0946
    149  CD2       19.7360   -0.9070   68.8360 C.ar  114  TRP114      0.0152
    150  NE1       17.6720   -1.4210   69.5430 N.ar  114  TRP114     -0.2442
    151  CE2       19.0020   -1.6320   69.7980 C.ar  114  TRP114      0.0810
    152  CE3       21.1380   -0.9520   68.8810 C.ar  114  TRP114      0.0012
    153  CZ2       19.6220   -2.3950   70.7940 C.ar  114  TRP114      0.0191
    154  CZ3       21.7580   -1.7140   69.8790 C.ar  114  TRP114      0.0001
    155  CH2       20.9970   -2.4220   70.8160 C.ar  114  TRP114      0.0015
    156  N         19.8190   -3.2590   62.6160 N.3   117  GLY117     -0.1210
    157  CA        20.6580   -4.1890   63.3560 C.3   117  GLY117      0.1956
    158  C         19.8300   -5.3330   63.9240 C.2   117  GLY117      0.2611
    159  O         20.2160   -6.5030   63.8110 O.2   117  GLY117     -0.2717
    160  N         18.6820   -5.0070   64.5210 N.am  118  VAL118     -0.1979
    161  CA        17.8170   -6.0390   65.0760 C.3   118  VAL118      0.1595
    162  C         17.3820   -6.9760   63.9510 C.2   118  VAL118      0.2287
    163  O         17.3750   -8.1980   64.1180 O.2   118  VAL118     -0.2864
    164  CB        16.6020   -5.4350   65.7890 C.3   118  VAL118      0.0276
    165  CG1       15.6690   -6.5390   66.2850 C.3   118  VAL118      0.0022
    166  CG2       17.0690   -4.5620   66.9660 C.3   118  VAL118      0.0022
    167  N         19.0680   -7.6750   61.2120 N.3   120  ILE120     -0.1231
    168  CA        20.2380   -8.4830   60.8730 C.3   120  ILE120      0.1692
    169  C         20.4380   -9.6100   61.8800 C.2   120  ILE120      0.2592
    170  O         20.7270  -10.7450   61.5040 O.2   120  ILE120     -0.2718
    171  CB        21.5130   -7.5950   60.7820 C.3   120  ILE120      0.0266
    172  CG1       21.4240   -6.6810   59.5560 C.3   120  ILE120      0.0019
    173  CG2       22.7750   -8.4440   60.6930 C.3   120  ILE120      0.0020
    174  CD1       22.5320   -5.6500   59.4710 C.3   120  ILE120      0.0001
    175  N         20.2330   -9.3020   63.1580 N.am  121  PHE121     -0.1976
    176  CA        20.3870  -10.2830   64.2310 C.3   121  PHE121      0.1639
    177  C         19.4690  -11.4890   63.9970 C.2   121  PHE121      0.2290
    178  O         19.9070  -12.6380   64.0940 O.2   121  PHE121     -0.2864
    179  CB        20.0810   -9.6060   65.5700 C.3   121  PHE121      0.0560
    180  CG        20.1480  -10.5180   66.7530 C.ar  121  PHE121     -0.0200
    181  CD1       21.3050  -11.2400   67.0350 C.ar  121  PHE121     -0.0042
    182  CD2       19.0720  -10.6100   67.6250 C.ar  121  PHE121     -0.0042
    183  CE1       21.3860  -12.0330   68.1710 C.ar  121  PHE121     -0.0003
    184  CE2       19.1450  -11.3930   68.7550 C.ar  121  PHE121     -0.0003
    185  CZ        20.3060  -12.1070   69.0290 C.ar  121  PHE121     -0.0000
    186  N         21.6990  -10.8890   54.2250 N.3   190  ILE190     -0.1245
    187  CA        22.3450  -10.2470   55.3650 C.3   190  ILE190      0.1561
    188  C         23.3580   -9.2400   54.8500 C.2   190  ILE190      0.2260
    189  O         23.4250   -8.1190   55.3450 O.2   190  ILE190     -0.2867
    190  CB        23.0450  -11.2760   56.3090 C.3   190  ILE190      0.0252
    191  CG1       22.0000  -12.1420   57.0070 C.3   190  ILE190      0.0019
    192  CG2       23.8980  -10.5570   57.3760 C.3   190  ILE190      0.0019
    193  CD1       22.5750  -13.3990   57.6400 C.3   190  ILE190      0.0001
    194  N         23.4790   -5.3440   55.6870 N.3   194  VAL194     -0.1245
    195  CA        24.6740   -4.7450   56.2520 C.3   194  VAL194      0.1561
    196  C         24.9880   -3.4400   55.5100 C.2   194  VAL194      0.2260
    197  O         25.4670   -2.4640   56.1060 O.2   194  VAL194     -0.2867
    198  CB        25.8790   -5.7330   56.2110 C.3   194  VAL194      0.0252
    199  CG1       27.1950   -5.0120   56.5550 C.3   194  VAL194      0.0019
    200  CG2       25.6470   -6.8510   57.2060 C.3   194  VAL194      0.0019
    201  N         22.6640   -1.0060   56.7880 N.3   197  HIS197     -0.1226
    202  CA        23.1700   -0.7160   58.1360 C.3   197  HIS197      0.1752
    203  C         24.2580    0.3600   58.0120 C.2   197  HIS197      0.2595
    204  O         24.1900    1.3960   58.6720 O.2   197  HIS197     -0.2718
    205  CB        23.7620   -2.0020   58.7490 C.3   197  HIS197      0.0759
    206  CG        24.0870   -1.9090   60.2140 C.ar  197  HIS197      0.0818
    207  ND1       23.1560   -1.6720   61.2060 N.ar  197  HIS197     -0.2268
    208  CD2       25.2690   -2.0970   60.8600 C.ar  197  HIS197      0.1154
    209  CE1       23.7820   -1.7320   62.3940 C.ar  197  HIS197      0.1986
    210  NE2       25.0710   -1.9870   62.2450 N.ar  197  HIS197     -0.2212
    211  N         25.2390    0.1250   57.1390 N.am  198  LEU198     -0.1980
    212  CA        26.3230    1.0840   56.9250 C.3   198  LEU198      0.1596
    213  C         25.8210    2.4230   56.3490 C.2   198  LEU198      0.2287
    214  O         26.3920    3.4880   56.6280 O.2   198  LEU198     -0.2864
    215  CB        27.3930    0.4890   56.0090 C.3   198  LEU198      0.0297
    216  CG        28.1520   -0.7410   56.5260 C.3   198  LEU198      0.0022
    217  CD1       29.1220   -1.2380   55.4400 C.3   198  LEU198      0.0001
    218  CD2       28.8980   -0.4210   57.8250 C.3   198  LEU198      0.0001
    219  N         24.4650    4.3310   59.2280 N.3   201  LEU201     -0.1245
    220  CA        25.5410    4.7140   60.1240 C.3   201  LEU201      0.1561
    221  C         26.2360    5.9480   59.5760 C.2   201  LEU201      0.2260
    222  O         26.4730    6.9140   60.3000 O.2   201  LEU201     -0.2867
    223  CB        26.5700    3.5860   60.2350 C.3   201  LEU201      0.0270
    224  CG        27.9360    3.9650   60.8270 C.3   201  LEU201      0.0019
    225  CD1       27.8190    4.2390   62.3260 C.3   201  LEU201      0.0001
    226  CD2       28.9340    2.8590   60.5560 C.3   201  LEU201      0.0001
    227  N         29.5930    7.5810   63.6340 N.3   206  SER206     -0.1202
    228  CA        29.5940    6.8350   64.8800 C.3   206  SER206      0.2020
    229  C         29.4490    7.7820   66.0500 C.2   206  SER206      0.2619
    230  O         29.6820    8.9910   65.9390 O.2   206  SER206     -0.2717
    231  CB        30.9160    6.0820   65.0570 C.3   206  SER206      0.2103
    232  OG        31.0800    5.0480   64.1070 O.3   206  SER206     -0.2182
    233  N         29.0470    7.2180   67.1780 N.am  207  SER207     -0.1951
    234  CA        28.9460    7.9750   68.4110 C.3   207  SER207      0.1924
    235  C         30.3240    7.7770   69.0700 C.2   207  SER207      0.2314
    236  O         31.2670    7.3060   68.4370 O.2   207  SER207     -0.2863
    237  CB        27.8590    7.3770   69.2940 C.3   207  SER207      0.2116
    238  OG        27.5800    8.2280   70.3830 O.3   207  SER207     -0.2180
@<TRIPOS>BOND
     1   186   187    1
     2   188   189    2
     3   188   187    1
     4   187   190    1
     5   217   216    1
     6    62    61    2
     7   196   197    2
     8   196   195    1
     9   194   195    1
    10    66    64    1
    11    64    65    1
    12    64    63    1
    13   215   216    1
    14   215   212    1
    15    61    60    1
    16   198   195    1
    17   198   199    1
    18   198   200    1
    19   190   191    1
    20   190   192    1
    21   213   214    2
    22   213   212    1
    23   216   218    1
    24   201   202    1
    25    63    60    1
    26   212   211    1
    27   191   193    1
    28   211   203   am
    29    58    57    2
    30    60    59    1
    31   203   202    1
    32   203   204    2
    33   202   205    1
    34    57    56    1
    35    56    55    1
    36   205   206    1
    37   219   220    1
    38   174   172    1
    39   172   171    1
    40   221   220    1
    41   221   222    2
    42    55    49   am
    43    50    49    2
    44   220   223    1
    45   206   208   ar
    46   206   207   ar
    47   223   224    1
    48    76    77   ar
    49    76    74   ar
    50    44    43    2
    51   226   224    1
    52    49    48    1
    53   173   171    1
    54    77    75   ar
    55   171   168    1
    56   224   225    1
    57   208   210   ar
    58   168   167    1
    59   168   169    1
    60   207   209   ar
    61    42    45    1
    62    42    43    1
    63    42    41    1
    64    45    46    1
    65    74    72   ar
    66   170   169    2
    67    40    39    2
    68   140   139    1
    69   169   175   am
    70    75    73   ar
    71    48    47    1
    72    48    51    1
    73   210   209   ar
    74    41    39   am
    75    39    38    1
    76   134   135    1
    77   135   138    1
    78   135   136    1
    79    51    52    1
    80    72    73   ar
    81    72    71    1
    82   156   157    1
    83   137   136    2
    84   138   139    1
    85   175   176    1
    86   139   141    1
    87   157   158    1
    88   136   142   am
    89    38    37    1
    90    71    68    1
    91   227   228    1
    92   159   158    2
    93    85    84    1
    94   158   160   am
    95   162   163    2
    96   162   161    1
    97   177   178    2
    98   177   176    1
    99    52    54    1
   100    52    53    1
   101   232   231    1
   102   176   179    1
   103   160   161    1
   104   142   143    1
   105    32    31    2
   106    68    67    1
   107    68    69    1
   108    37    31   am
   109   228   231    1
   110   228   229    1
   111   144   145    2
   112   144   143    1
   113   161   164    1
   114    84    83    1
   115    95    94   ar
   116    95    93   ar
   117   128   127    1
   118   128   129    1
   119   124   125    1
   120   124   123    1
   121   124   127    1
   122    31    30    1
   123   126   125    2
   124   133   131    1
   125   143   146    1
   126   179   180    1
   127    94    92   ar
   128   164   165    1
   129   164   166    1
   130    69    70    2
   131   230   229    2
   132    18    17    2
   133    93    91   ar
   134   129   130    1
   135   229   233   am
   136    83    82    1
   137   131   130    2
   138   131   132    1
   139    30    29    1
   140    30    33    1
   141   180   181   ar
   142   180   182   ar
   143    92    91   ar
   144   146   147    1
   145    82    79    1
   146    91    90    1
   147   181   183   ar
   148    17    16    1
   149   233   234    1
   150   182   184   ar
   151    21    23   ar
   152    21    20   ar
   153    79    78    1
   154    79    80    1
   155    33    34    1
   156    90    87    1
   157   147   148   ar
   158   147   149   ar
   159    19    16    1
   160    19    20    1
   161   183   185   ar
   162    16    15    1
   163    23    24   ar
   164   234   235    1
   165   234   237    1
   166   120   119    2
   167   236   235    2
   168   148   150   ar
   169    20    22   ar
   170   112   111    1
   171   184   185   ar
   172   149   152   ar
   173   149   151   ar
   174   152   154   ar
   175    80    81    2
   176    34    35    1
   177   102   101    1
   178   102   103    1
   179    36    35    1
   180   237   238    1
   181   101   100    1
   182    87    88    1
   183    87    86    1
   184   150   151   ar
   185    15     3   am
   186   119   118    1
   187     4     3    2
   188    24    22   ar
   189    24    26   ar
   190   151   153   ar
   191   111   110    1
   192    22    25   ar
   193   121   118    1
   194   121   122    1
   195   154   155   ar
   196    88    89    2
   197    88    96   am
   198     3     2    1
   199    96    97    1
   200   118   117    1
   201    97   100    1
   202    97    98    1
   203   153   155   ar
   204    26    28   ar
   205    25    27   ar
   206   110   109    1
   207     2     1    1
   208     2     5    1
   209   109   108    1
   210   114   113    1
   211   114   115    1
   212    28    27   ar
   213   108   105    1
   214    98    99    2
   215   113   106   am
   216     5     6    1
   217   106   105    1
   218   106   107    2
   219   115   116    2
   220   105   104    1
   221    11    13   ar
   222    11     8   ar
   223     6     8   ar
   224     6     7   ar
   225    13    14   ar
   226     8    10   ar
   227     7     9   ar
   228    14    12   ar
   229    10     9   ar
   230    10    12   ar
