@<TRIPOS>MOLECULE
tmp/3cxhE01.pdb
 70 68 0 0 0
SMALL
GASTEIGER

@<TRIPOS>ATOM
      1  N         54.7870  -11.0940   57.0840 N.3    36  LEU36      -0.1231
      2  CA        53.9820  -12.1730   57.6460 C.3    36  LEU36       0.1693
      3  C         52.5720  -12.2330   57.0720 C.2    36  LEU36       0.2592
      4  O         52.0470  -13.3190   56.8290 O.2    36  LEU36      -0.2718
      5  CB        53.9560  -12.0970   59.1760 C.3    36  LEU36       0.0284
      6  CG        55.2810  -12.4730   59.8590 C.3    36  LEU36       0.0019
      7  CD1       55.1940  -12.2870   61.3580 C.3    36  LEU36       0.0001
      8  CD2       55.6400  -13.9110   59.5270 C.3    36  LEU36       0.0001
      9  N         51.9710  -11.0740   56.8180 N.am   37  SER37      -0.1952
     10  CA        50.6340  -11.0320   56.2360 C.3    37  SER37       0.1924
     11  C         50.6460  -11.6690   54.8490 C.2    37  SER37       0.2314
     12  O         49.7650  -12.4590   54.5230 O.2    37  SER37      -0.2863
     13  CB        50.1340   -9.5960   56.1390 C.3    37  SER37       0.2116
     14  OG        49.7690   -9.1130   57.4180 O.3    37  SER37      -0.2180
     15  N         50.8460  -15.2640   55.0860 N.3    40  GLY40      -0.1210
     16  CA        49.5650  -15.7300   55.5710 C.3    40  GLY40       0.1956
     17  C         48.5380  -15.7720   54.4590 C.2    40  GLY40       0.2611
     18  O         47.8620  -16.7860   54.2780 O.2    40  GLY40      -0.2717
     19  N         48.4620  -14.6900   53.6870 N.am   41  ALA41      -0.1979
     20  CA        47.5180  -14.5860   52.5840 C.3    41  ALA41       0.1597
     21  C         47.7840  -15.6490   51.5440 C.2    41  ALA41       0.2287
     22  O         46.8560  -16.2810   51.0350 O.2    41  ALA41      -0.2864
     23  CB        47.5940  -13.2150   51.9540 C.3    41  ALA41       0.0319
     24  N         49.2460  -18.5250   51.9920 N.3    43  SER43      -0.1202
     25  CA        48.8880  -19.8490   52.4730 C.3    43  SER43       0.2020
     26  C         47.3820  -20.0120   52.6630 C.2    43  SER43       0.2619
     27  O         46.8660  -21.1230   52.6070 O.2    43  SER43      -0.2717
     28  CB        49.6900  -20.2330   53.7300 C.3    43  SER43       0.2103
     29  OG        49.5360  -19.2840   54.7580 O.3    43  SER43      -0.2182
     30  N         46.6740  -18.9000   52.8330 N.am   44  THR44      -0.1938
     31  CA        45.2290  -18.9530   52.9860 C.3    44  THR44       0.2028
     32  C         44.6270  -19.2210   51.6160 C.2    44  THR44       0.2642
     33  O         43.7270  -20.0520   51.4780 O.2    44  THR44      -0.2714
     34  CB        44.6580  -17.6420   53.5440 C.3    44  THR44       0.1808
     35  OG1       45.2810  -17.3540   54.7970 O.3    44  THR44      -0.2208
     36  CG2       43.1460  -17.7670   53.7690 C.3    44  THR44       0.0379
     37  N         45.1410  -18.5320   50.6000 N.am   45  VAL45      -0.1963
     38  CA        44.6620  -18.7220   49.2320 C.3    45  VAL45       0.1727
     39  C         44.9590  -20.1500   48.7440 C.2    45  VAL45       0.2616
     40  O         44.1190  -20.7820   48.0990 O.2    45  VAL45      -0.2715
     41  CB        45.2680  -17.6540   48.2670 C.3    45  VAL45       0.0290
     42  CG1       45.0180  -18.0270   46.7990 C.3    45  VAL45       0.0023
     43  CG2       44.6560  -16.2680   48.5700 C.3    45  VAL45       0.0023
     44  N         46.1300  -20.6700   49.1040 N.am   46  GLU46      -0.1963
     45  CA        46.5190  -22.0190   48.7110 C.3    46  GLU46       0.1733
     46  C         45.7000  -23.0900   49.4240 C.2    46  GLU46       0.2617
     47  O         45.4940  -24.1780   48.8950 O.2    46  GLU46      -0.2715
     48  CB        48.0120  -22.2390   48.9510 C.3    46  GLU46       0.0429
     49  CG        48.8990  -21.4210   48.0180 C.3    46  GLU46       0.1163
     50  CD        50.3900  -21.6670   48.2280 C.2    46  GLU46       0.3649
     51  OE1       50.8540  -21.6030   49.3950 O.co2  46  GLU46      -0.2457
     52  OE2       51.0940  -21.9110   47.2170 O.co2  46  GLU46      -0.2457
     53  N         45.2150  -22.7730   50.6160 N.am   47  THR47      -0.1937
     54  CA        44.4090  -23.7120   51.3730 C.3    47  THR47       0.2028
     55  C         43.0660  -23.9210   50.6710 C.2    47  THR47       0.2642
     56  O         42.6200  -25.0660   50.4920 O.2    47  THR47      -0.2714
     57  CB        44.2190  -23.2050   52.8070 C.3    47  THR47       0.1808
     58  OG1       45.5040  -23.0880   53.4130 O.3    47  THR47      -0.2208
     59  CG2       43.3820  -24.1650   53.6470 C.3    47  THR47       0.0379
     60  N         42.4360  -22.8190   50.2620 N.am   48  PHE48      -0.1973
     61  CA        41.1600  -22.8810   49.5590 C.3    48  PHE48       0.1639
     62  C         41.3300  -23.4580   48.1580 C.2    48  PHE48       0.2290
     63  O         40.5560  -24.3160   47.7380 O.2    48  PHE48      -0.2864
     64  CB        40.5140  -21.4990   49.4630 C.3    48  PHE48       0.0560
     65  CG        39.9550  -20.9940   50.7630 C.ar   48  PHE48      -0.0200
     66  CD1       38.6330  -21.2290   51.1020 C.ar   48  PHE48      -0.0042
     67  CD2       40.7450  -20.2690   51.6400 C.ar   48  PHE48      -0.0042
     68  CE1       38.1050  -20.7430   52.2960 C.ar   48  PHE48      -0.0003
     69  CE2       40.2250  -19.7800   52.8390 C.ar   48  PHE48      -0.0003
     70  CZ        38.9080  -20.0160   53.1660 C.ar   48  PHE48      -0.0000
@<TRIPOS>BOND
     1    42    41    1
     2    52    50   ar
     3    63    62    2
     4    49    50    1
     5    49    48    1
     6    40    39    2
     7    62    61    1
     8    50    51   ar
     9    41    43    1
    10    41    38    1
    11    45    48    1
    12    45    44    1
    13    45    46    1
    14    39    44   am
    15    39    38    1
    16    47    46    2
    17    38    37    1
    18    46    53   am
    19    64    61    1
    20    64    65    1
    21    61    60    1
    22    60    55   am
    23    56    55    2
    24    37    32   am
    25    53    54    1
    26    55    54    1
    27    65    66   ar
    28    65    67   ar
    29    22    21    2
    30    66    68   ar
    31    54    57    1
    32    33    32    2
    33    21    20    1
    34    32    31    1
    35    67    69   ar
    36    23    20    1
    37    24    25    1
    38    68    70   ar
    39    25    26    1
    40    25    28    1
    41    20    19    1
    42    27    26    2
    43    26    30   am
    44    57    58    1
    45    57    59    1
    46    30    31    1
    47    69    70   ar
    48    31    34    1
    49    34    36    1
    50    34    35    1
    51    19    17   am
    52    28    29    1
    53    18    17    2
    54    17    16    1
    55    12    11    2
    56    11    10    1
    57    15    16    1
    58    13    10    1
    59    13    14    1
    60    10     9    1
    61     9     3   am
    62     4     3    2
    63     3     2    1
    64     1     2    1
    65     2     5    1
    66     5     6    1
    67     8     6    1
    68     6     7    1
