@<TRIPOS>MOLECULE
tmp/3cxhC05.pdb
 97 91 0 0 0
SMALL
GASTEIGER

@<TRIPOS>ATOM
      1  N         18.2280    8.3470   69.2400 N.3   108  SER108     -0.1203
      2  CA        18.2180    9.3420   68.1930 C.3   108  SER108      0.2005
      3  C         19.5950   10.0060   68.0560 C.2   108  SER108      0.2460
      4  O         20.2100   10.3870   69.0460 O.2   108  SER108     -0.2732
      5  CB        17.1310   10.3730   68.5000 C.3   108  SER108      0.2103
      6  OG        16.7800   11.0860   67.3330 O.3   108  SER108     -0.2182
      7  N         20.0530   10.2330   66.8170 N.am  109  PRO109     -0.2728
      8  CA        19.4310    9.9440   65.5230 C.3   109  PRO109      0.1401
      9  C         19.8070    8.5930   64.9200 C.2   109  PRO109      0.2269
     10  O         19.7620    8.4160   63.7060 O.2   109  PRO109     -0.2865
     11  CB        19.9770   11.0660   64.6610 C.3   109  PRO109      0.0296
     12  CG        21.4030   11.1290   65.1320 C.3   109  PRO109      0.0237
     13  CD        21.2860   11.0220   66.6360 C.3   109  PRO109      0.0939
     14  N         18.2340    5.4770   65.5610 N.3   111  VAL111     -0.1231
     15  CA        17.2700    4.3790   65.7300 C.3   111  VAL111      0.1692
     16  C         17.1250    3.5010   64.4940 C.2   111  VAL111      0.2592
     17  O         17.0820    2.2670   64.6040 O.2   111  VAL111     -0.2718
     18  CB        15.8890    4.8030   66.3460 C.3   111  VAL111      0.0266
     19  CG1       16.0300    6.0550   67.1980 C.3   111  VAL111      0.0020
     20  CG2       14.7990    4.9030   65.3030 C.3   111  VAL111      0.0020
     21  N         17.1140    4.1190   63.3160 N.am  112  THR112     -0.1953
     22  CA        17.0300    3.3450   62.0860 C.3   112  THR112      0.1897
     23  C         18.2230    2.3860   62.0710 C.2   112  THR112      0.2313
     24  O         18.0750    1.2040   61.7790 O.2   112  THR112     -0.2863
     25  CB        17.0890    4.2430   60.8440 C.3   112  THR112      0.1794
     26  OG1       15.9830    5.1480   60.8560 O.3   112  THR112     -0.2208
     27  CG2       17.0260    3.4100   59.5910 C.3   112  THR112      0.0378
     28  N         17.4170   -0.4440   64.4340 N.3   115  ASN115     -0.1225
     29  CA        16.3620   -1.3180   63.9360 C.3   115  ASN115      0.1785
     30  C         16.8440   -2.2400   62.8340 C.2   115  ASN115      0.2597
     31  O         16.4220   -3.3940   62.7540 O.2   115  ASN115     -0.2718
     32  CB        15.1290   -0.5150   63.4800 C.3   115  ASN115      0.1169
     33  CG        14.4400    0.2250   64.6350 C.2   115  ASN115      0.2627
     34  OD1       14.7580    0.0160   65.8050 O.2   115  ASN115     -0.2716
     35  ND2       13.5010    1.1030   64.2980 N.am  115  ASN115     -0.0877
     36  N         17.7160   -1.7380   61.9690 N.am  116  VAL116     -0.1980
     37  CA        18.2570   -2.5730   60.8980 C.3   116  VAL116      0.1595
     38  C         19.1140   -3.6510   61.5540 C.2   116  VAL116      0.2287
     39  O         19.0860   -4.8190   61.1470 O.2   116  VAL116     -0.2864
     40  CB        19.0960   -1.7490   59.9020 C.3   116  VAL116      0.0276
     41  CG1       19.8480   -2.6670   58.9480 C.3   116  VAL116      0.0022
     42  CG2       18.1950   -0.7870   59.1290 C.3   116  VAL116      0.0022
     43  N         17.1030   -6.4080   62.7770 N.3   119  ILE119     -0.1245
     44  CA        16.7150   -7.2100   61.6240 C.3   119  ILE119      0.1561
     45  C         17.8400   -8.1860   61.2650 C.2   119  ILE119      0.2260
     46  O         17.5930   -9.3670   61.0290 O.2   119  ILE119     -0.2867
     47  CB        16.3940   -6.3260   60.3890 C.3   119  ILE119      0.0252
     48  CG1       15.0280   -5.6690   60.5640 C.3   119  ILE119      0.0019
     49  CG2       16.4100   -7.1580   59.1050 C.3   119  ILE119      0.0019
     50  CD1       14.6760   -4.6840   59.4460 C.3   119  ILE119      0.0001
     51  N         23.2420   -7.5800   52.1740 N.3   192  ALA192     -0.1231
     52  CA        22.5020   -6.4350   51.6640 C.3   192  ALA192      0.1694
     53  C         22.0270   -5.5700   52.8110 C.2   192  ALA192      0.2591
     54  O         22.0890   -4.3450   52.7260 O.2   192  ALA192     -0.2718
     55  CB        21.3300   -6.8870   50.7970 C.3   192  ALA192      0.0304
     56  N         21.5740   -6.2000   53.8950 N.am  193  MET193     -0.1979
     57  CA        21.1180   -5.4440   55.0620 C.3   193  MET193      0.1605
     58  C         22.3030   -4.7180   55.7240 C.2   193  MET193      0.2287
     59  O         22.1550   -3.6000   56.2340 O.2   193  MET193     -0.2864
     60  CB        20.4220   -6.3650   56.0580 C.3   193  MET193      0.0413
     61  CG        19.1380   -7.0060   55.5290 C.3   193  MET193      0.0598
     62  SD        17.7870   -5.8250   55.2820 S.3   193  MET193     -0.1393
     63  CE        18.1380   -5.3040   53.6290 C.3   193  MET193      0.0692
     64  N         24.6670   -3.4080   54.2200 N.3   195  ILE195     -0.1231
     65  CA        24.8780   -2.2070   53.4180 C.3   195  ILE195      0.1692
     66  C         23.8860   -1.1420   53.8690 C.2   195  ILE195      0.2591
     67  O         24.2290    0.0240   53.9870 O.2   195  ILE195     -0.2718
     68  CB        24.7170   -2.4990   51.9140 C.3   195  ILE195      0.0266
     69  CG1       25.9050   -3.3270   51.4330 C.3   195  ILE195      0.0019
     70  CG2       24.6650   -1.1950   51.1120 C.3   195  ILE195      0.0020
     71  CD1       25.7560   -3.8250   50.0320 C.3   195  ILE195      0.0001
     72  N         22.6540   -1.5490   54.1390 N.am  196  MET196     -0.1979
     73  CA        21.6480   -0.6110   54.6160 C.3   196  MET196      0.1605
     74  C         22.0700   -0.1080   56.0000 C.2   196  MET196      0.2287
     75  O         21.9020    1.0660   56.3190 O.2   196  MET196     -0.2864
     76  CB        20.2720   -1.2780   54.6540 C.3   196  MET196      0.0413
     77  CG        19.7190   -1.6080   53.2690 C.3   196  MET196      0.0598
     78  SD        18.0210   -2.2350   53.2920 S.3   196  MET196     -0.1393
     79  CE        17.1330   -0.8480   54.0160 C.3   196  MET196      0.0692
     80  N         24.7560    2.3760   55.5510 N.3   199  MET199     -0.1245
     81  CA        24.2000    3.5960   54.9790 C.3   199  MET199      0.1570
     82  C         23.6120    4.4790   56.0680 C.2   199  MET199      0.2261
     83  O         23.7490    5.6990   56.0370 O.2   199  MET199     -0.2867
     84  CB        23.1240    3.2630   53.9460 C.3   199  MET199      0.0387
     85  CG        23.6730    2.8480   52.6000 C.3   199  MET199      0.0595
     86  SD        22.3960    2.1210   51.5650 S.3   199  MET199     -0.1393
     87  CE        21.4470    3.5840   51.1560 C.3   199  MET199      0.0692
     88  N         25.0230    9.7980   59.9790 N.3   204  HIS204     -0.1241
     89  CA        25.1500   10.3390   61.3170 C.3   204  HIS204      0.1621
     90  C         26.5180   10.0880   61.9350 C.2   204  HIS204      0.2264
     91  O         26.8950   10.7470   62.9120 O.2   204  HIS204     -0.2867
     92  CB        24.0400    9.7960   62.2060 C.3   204  HIS204      0.0745
     93  CG        22.7060   10.3870   61.8960 C.ar  204  HIS204      0.0817
     94  ND1       21.6370    9.6330   61.4620 N.ar  204  HIS204     -0.2268
     95  CD2       22.2800   11.6730   61.9190 C.ar  204  HIS204      0.1154
     96  CE1       20.6090   10.4300   61.2340 C.ar  204  HIS204      0.1986
     97  NE2       20.9740   11.6730   61.5050 N.ar  204  HIS204     -0.2212
@<TRIPOS>BOND
     1    71    69    1
     2    55    52    1
     3    70    68    1
     4    87    86    1
     5    69    68    1
     6    86    85    1
     7    52    51    1
     8    52    53    1
     9    68    65    1
    10    85    84    1
    11    54    53    2
    12    53    56   am
    13    77    78    1
    14    77    76    1
    15    78    79    1
    16    65    66    1
    17    65    64    1
    18    63    62    1
    19    66    67    2
    20    66    72   am
    21    56    57    1
    22    84    81    1
    23    72    73    1
    24    73    76    1
    25    73    74    1
    26    81    80    1
    27    81    82    1
    28    57    58    1
    29    57    60    1
    30    62    61    1
    31    61    60    1
    32    58    59    2
    33    74    75    2
    34    83    82    2
    35    41    40    1
    36    49    47    1
    37    42    40    1
    38    50    48    1
    39    27    25    1
    40    40    37    1
    41    88    89    1
    42    47    48    1
    43    47    44    1
    44    25    26    1
    45    25    22    1
    46    37    38    1
    47    37    36    1
    48    46    45    2
    49    39    38    2
    50    96    94   ar
    51    96    97   ar
    52    45    44    1
    53    89    90    1
    54    89    92    1
    55    94    93   ar
    56    97    95   ar
    57    44    43    1
    58    24    23    2
    59    93    95   ar
    60    93    92    1
    61    90    91    2
    62    36    30   am
    63    23    22    1
    64    22    21    1
    65    31    30    2
    66    30    29    1
    67    21    16   am
    68    32    29    1
    69    32    33    1
    70    10     9    2
    71    29    28    1
    72    35    33   am
    73    16    17    2
    74    16    15    1
    75    33    34    2
    76    11    12    1
    77    11     8    1
    78     9     8    1
    79    12    13    1
    80    20    18    1
    81     8     7    1
    82    14    15    1
    83    15    18    1
    84    18    19    1
    85    13     7    1
    86     7     3   am
    87     6     5    1
    88     3     2    1
    89     3     4    2
    90     2     5    1
    91     2     1    1
