@<TRIPOS>MOLECULE
tmp/3cxhC07.pdb
 102 97 0 0 0
SMALL
GASTEIGER

@<TRIPOS>ATOM
      1  N         33.6790   -3.9250   62.2580 N.3    34  SER34      -0.1217
      2  CA        34.5840   -4.4340   61.2390 C.3    34  SER34       0.1889
      3  C         34.7920   -5.9290   61.4400 C.2    34  SER34       0.2288
      4  O         34.8230   -6.6850   60.4810 O.2    34  SER34      -0.2866
      5  CB        35.9280   -3.6820   61.2590 C.3    34  SER34       0.2089
      6  OG        36.5670   -3.7680   62.5240 O.3    34  SER34      -0.2183
      7  N         32.0700   -7.8010   59.9420 N.3    37  GLY37      -0.1210
      8  CA        32.2050   -7.8380   58.4970 C.3    37  GLY37       0.1956
      9  C         33.1150   -8.9990   58.1390 C.2    37  GLY37       0.2611
     10  O         32.8170   -9.7720   57.2290 O.2    37  GLY37      -0.2717
     11  N         34.2130   -9.1380   58.8880 N.am   38  LEU38      -0.1979
     12  CA        35.1880  -10.2160   58.7000 C.3    38  LEU38       0.1596
     13  C         34.4770  -11.5520   58.8740 C.2    38  LEU38       0.2287
     14  O         34.7040  -12.4830   58.1110 O.2    38  LEU38      -0.2864
     15  CB        36.2970  -10.1250   59.7560 C.3    38  LEU38       0.0297
     16  CG        37.7390  -10.5580   59.4400 C.3    38  LEU38       0.0022
     17  CD1       38.4510  -10.8900   60.7360 C.3    38  LEU38       0.0001
     18  CD2       37.8090  -11.7520   58.5110 C.3    38  LEU38       0.0001
     19  N         32.3540  -12.4780   55.7870 N.3    41  VAL41      -0.1245
     20  CA        33.2170  -12.9240   54.6940 C.3    41  VAL41       0.1561
     21  C         33.7790  -14.3180   54.9760 C.2    41  VAL41       0.2260
     22  O         33.8320  -15.1530   54.0730 O.2    41  VAL41      -0.2867
     23  CB        34.3780  -11.9200   54.4220 C.3    41  VAL41       0.0252
     24  CG1       35.3120  -12.4520   53.3400 C.3    41  VAL41       0.0019
     25  CG2       33.8090  -10.5540   53.9920 C.3    41  VAL41       0.0019
     26  N         41.3060    6.3500   57.5860 N.3   222  HIS222     -0.1226
     27  CA        42.5690    5.7920   57.1440 C.3   222  HIS222      0.1752
     28  C         43.8480    6.0980   57.9240 C.2   222  HIS222      0.2596
     29  O         44.3130    7.2440   58.0540 O.2   222  HIS222     -0.2718
     30  CB        42.8170    5.9880   55.6590 C.3   222  HIS222      0.0759
     31  CG        44.1610    5.4970   55.2260 C.ar  222  HIS222      0.0818
     32  ND1       44.6310    4.2430   55.5590 N.ar  222  HIS222     -0.2268
     33  CD2       45.1500    6.1010   54.5260 C.ar  222  HIS222      0.1154
     34  CE1       45.8530    4.0970   55.0790 C.ar  222  HIS222      0.1986
     35  NE2       46.1910    5.2100   54.4480 N.ar  222  HIS222     -0.2212
     36  N         44.4800    4.9670   58.2270 N.am  223  SER223     -0.1952
     37  CA        45.6950    4.8170   58.9810 C.3   223  SER223      0.1924
     38  C         45.2220    4.6010   60.3880 C.2   223  SER223      0.2314
     39  O         45.1940    3.4540   60.8470 O.2   223  SER223     -0.2863
     40  CB        46.6330    6.0070   58.8380 C.3   223  SER223      0.2116
     41  OG        47.1490    6.0310   57.5200 O.3   223  SER223     -0.2180
     42  N         42.1040    2.1850   60.3360 N.3   226  ILE226     -0.1231
     43  CA        42.3760    1.0510   59.4590 C.3   226  ILE226      0.1692
     44  C         43.3720    0.1710   60.2120 C.2   226  ILE226      0.2592
     45  O         43.1980   -1.0490   60.3080 O.2   226  ILE226     -0.2718
     46  CB        43.0160    1.4960   58.1230 C.3   226  ILE226      0.0266
     47  CG1       41.9960    2.2620   57.2610 C.3   226  ILE226      0.0019
     48  CG2       43.6020    0.2950   57.3850 C.3   226  ILE226      0.0020
     49  CD1       40.8440    1.4290   56.7510 C.3   226  ILE226      0.0001
     50  N         44.3960    0.7990   60.7900 N.am  227  PHE227     -0.1976
     51  CA        45.4010    0.0460   61.5360 C.3   227  PHE227      0.1639
     52  C         44.9780   -0.3680   62.9350 C.2   227  PHE227      0.2290
     53  O         45.4850   -1.3530   63.4630 O.2   227  PHE227     -0.2864
     54  CB        46.7490    0.7580   61.5390 C.3   227  PHE227      0.0560
     55  CG        47.4990    0.5950   60.2590 C.ar  227  PHE227     -0.0200
     56  CD1       47.3590    1.5220   59.2320 C.ar  227  PHE227     -0.0042
     57  CD2       48.3050   -0.5140   60.0520 C.ar  227  PHE227     -0.0042
     58  CE1       48.0110    1.3430   58.0040 C.ar  227  PHE227     -0.0003
     59  CE2       48.9690   -0.7120   58.8290 C.ar  227  PHE227     -0.0003
     60  CZ        48.8200    0.2180   57.8040 C.ar  227  PHE227     -0.0000
     61  N         41.8630   -1.3130   63.6320 N.3   229  ASP229     -0.1225
     62  CA        40.9690   -2.4500   63.3590 C.3   229  ASP229      0.1805
     63  C         41.7950   -3.7000   63.0650 C.2   229  ASP229      0.2597
     64  O         41.3710   -4.8170   63.3530 O.2   229  ASP229     -0.2718
     65  CB        40.0400   -2.1690   62.1630 C.3   229  ASP229      0.1424
     66  CG        38.9590   -1.1200   62.4620 C.2   229  ASP229      0.3668
     67  OD1       38.7280   -0.7550   63.6450 O.co2 229  ASP229     -0.2456
     68  OD2       38.3250   -0.6600   61.4860 O.co2 229  ASP229     -0.2456
     69  N         42.9680   -3.4990   62.4670 N.am  230  LEU230     -0.1979
     70  CA        43.8830   -4.5940   62.1390 C.3   230  LEU230      0.1596
     71  C         44.3250   -5.2950   63.4290 C.2   230  LEU230      0.2287
     72  O         44.4710   -6.5170   63.4600 O.2   230  LEU230     -0.2864
     73  CB        45.0940   -4.0450   61.3910 C.3   230  LEU230      0.0297
     74  CG        45.7990   -4.9710   60.3970 C.3   230  LEU230      0.0022
     75  CD1       44.8300   -5.4010   59.3070 C.3   230  LEU230      0.0001
     76  CD2       47.0090   -4.2530   59.7860 C.3   230  LEU230      0.0001
     77  N         41.6130   -7.5540   64.3750 N.3   233  VAL233     -0.1231
     78  CA        41.4610   -8.5770   63.3350 C.3   233  VAL233      0.1692
     79  C         42.4240   -9.7090   63.6260 C.2   233  VAL233      0.2592
     80  O         42.0460  -10.8860   63.6220 O.2   233  VAL233     -0.2718
     81  CB        41.7470   -8.0130   61.9100 C.3   233  VAL233      0.0266
     82  CG1       41.8730   -9.1260   60.8970 C.3   233  VAL233      0.0020
     83  CG2       40.6240   -7.0660   61.4820 C.3   233  VAL233      0.0020
     84  N         43.6740   -9.3540   63.9030 N.am  234  PHE234     -0.1976
     85  CA        44.6620  -10.3730   64.2140 C.3   234  PHE234      0.1639
     86  C         44.3330  -11.0840   65.5270 C.2   234  PHE234      0.2290
     87  O         44.4310  -12.3170   65.6180 O.2   234  PHE234     -0.2864
     88  CB        46.0680   -9.7780   64.2350 C.3   234  PHE234      0.0560
     89  CG        46.6010   -9.4440   62.8690 C.ar  234  PHE234     -0.0200
     90  CD1       47.3290   -8.2790   62.6590 C.ar  234  PHE234     -0.0042
     91  CD2       46.4110  -10.3220   61.8010 C.ar  234  PHE234     -0.0042
     92  CE1       47.8730   -7.9920   61.4010 C.ar  234  PHE234     -0.0003
     93  CE2       46.9450  -10.0490   60.5390 C.ar  234  PHE234     -0.0003
     94  CZ        47.6810   -8.8820   60.3360 C.ar  234  PHE234     -0.0000
     95  N         41.5990  -13.4930   64.8010 N.3   237  MET237     -0.1245
     96  CA        42.1190  -14.6320   64.0520 C.3   237  MET237      0.1570
     97  C         42.9710  -15.5590   64.9310 C.2   237  MET237      0.2261
     98  O         43.0210  -16.7740   64.7220 O.2   237  MET237     -0.2867
     99  CB        42.9550  -14.1550   62.8610 C.3   237  MET237      0.0387
    100  CG        42.1690  -13.5460   61.7140 C.3   237  MET237      0.0595
    101  SD        43.2510  -13.2150   60.2950 S.3   237  MET237     -0.1393
    102  CE        42.1010  -12.4370   59.1190 C.3   237  MET237      0.0692
@<TRIPOS>BOND
     1    24    23    1
     2    25    23    1
     3    22    21    2
     4    23    20    1
     5    35    33   ar
     6    35    34   ar
     7    33    31   ar
     8    20    21    1
     9    20    19    1
    10    34    32   ar
    11    31    32   ar
    12    31    30    1
    13    30    27    1
    14    49    47    1
    15    27    26    1
    16    27    28    1
    17    10     9    2
    18    47    46    1
    19    48    46    1
    20    41    40    1
    21    60    58   ar
    22    60    59   ar
    23    28    29    2
    24    28    36   am
    25    58    56   ar
    26    14    13    2
    27    46    43    1
    28     9     8    1
    29     9    11   am
    30    36    37    1
    31     8     7    1
    32    18    16    1
    33    12    13    1
    34    12    11    1
    35    12    15    1
    36    59    57   ar
    37    40    37    1
    38    37    38    1
    39   102   101    1
    40    56    55   ar
    41    75    74    1
    42    16    15    1
    43    16    17    1
    44    43    44    1
    45    43    42    1
    46    76    74    1
    47    57    55   ar
    48    44    45    2
    49    44    50   am
    50    55    54    1
    51   101   100    1
    52    94    93   ar
    53    94    92   ar
    54    38    39    2
    55    74    73    1
    56     4     3    2
    57    93    91   ar
    58    50    51    1
    59    82    81    1
    60     2     5    1
    61     2     3    1
    62     2     1    1
    63     5     6    1
    64    73    70    1
    65    92    90   ar
    66    83    81    1
    67    68    66   ar
    68    51    54    1
    69    51    52    1
    70   100    99    1
    71    91    89   ar
    72    81    78    1
    73    70    69    1
    74    70    71    1
    75    65    66    1
    76    65    62    1
    77    66    67   ar
    78    69    63   am
    79    90    89   ar
    80    99    96    1
    81    89    88    1
    82    52    53    2
    83    63    64    2
    84    63    62    1
    85    78    79    1
    86    78    77    1
    87    62    61    1
    88    71    72    2
    89    80    79    2
    90    79    84   am
    91    84    85    1
    92    96    95    1
    93    96    97    1
    94    85    88    1
    95    85    86    1
    96    98    97    2
    97    86    87    2
