@<TRIPOS>MOLECULE
tmp/3cxhC02.pdb
 229 220 0 0 0
SMALL
GASTEIGER

@<TRIPOS>ATOM
      1  N         18.2020  -11.2130   63.6890 N.3   122  ILE122     -0.1245
      2  CA        17.2060  -12.2450   63.4140 C.3   122  ILE122      0.1561
      3  C         17.6300  -13.0730   62.2010 C.2   122  ILE122      0.2260
      4  O         17.6820  -14.3140   62.2660 O.2   122  ILE122     -0.2867
      5  CB        15.8100  -11.6080   63.1460 C.3   122  ILE122      0.0252
      6  CG1       15.3140  -10.8790   64.3950 C.3   122  ILE122      0.0019
      7  CG2       14.7900  -12.6690   62.7320 C.3   122  ILE122      0.0019
      8  CD1       14.0940  -10.0300   64.1460 C.3   122  ILE122      0.0001
      9  N         20.5400  -15.4090   62.9960 N.3   125  ILE125     -0.1231
     10  CA        20.1000  -16.5320   63.8030 C.3   125  ILE125      0.1692
     11  C         19.4130  -17.5840   62.9260 C.2   125  ILE125      0.2591
     12  O         19.6740  -18.7700   63.0660 O.2   125  ILE125     -0.2718
     13  CB        19.1330  -16.0740   64.9190 C.3   125  ILE125      0.0266
     14  CG1       19.8930  -15.2650   65.9560 C.3   125  ILE125      0.0019
     15  CG2       18.4590  -17.2730   65.5830 C.3   125  ILE125      0.0020
     16  CD1       19.0500  -14.9090   67.1310 C.3   125  ILE125      0.0001
     17  N         18.5480  -17.1440   62.0140 N.am  126  ALA126     -0.1980
     18  CA        17.8440  -18.0660   61.1200 C.3   126  ALA126      0.1597
     19  C         18.8360  -18.7810   60.2010 C.2   126  ALA126      0.2287
     20  O         18.6840  -19.9730   59.9020 O.2   126  ALA126     -0.2864
     21  CB        16.7870  -17.3090   60.2950 C.3   126  ALA126      0.0319
     22  N         20.7490  -21.3840   62.0680 N.3   129  PHE129     -0.1227
     23  CA        19.8470  -22.4950   62.3150 C.3   129  PHE129      0.1736
     24  C         19.7850  -23.3780   61.0760 C.2   129  PHE129      0.2595
     25  O         19.9040  -24.6010   61.1740 O.2   129  PHE129     -0.2718
     26  CB        18.4430  -21.9920   62.6770 C.3   129  PHE129      0.0547
     27  CG        17.3320  -22.9310   62.2570 C.ar  129  PHE129     -0.0202
     28  CD1       17.2020  -24.1840   62.8410 C.ar  129  PHE129     -0.0042
     29  CD2       16.4430  -22.5680   61.2340 C.ar  129  PHE129     -0.0042
     30  CE1       16.2090  -25.0700   62.4180 C.ar  129  PHE129     -0.0003
     31  CE2       15.4470  -23.4460   60.8030 C.ar  129  PHE129     -0.0003
     32  CZ        15.3300  -24.7030   61.3980 C.ar  129  PHE129     -0.0000
     33  N         19.5770  -22.7580   59.9150 N.am  130  LEU130     -0.1980
     34  CA        19.4990  -23.5020   58.6620 C.3   130  LEU130      0.1596
     35  C         20.7890  -24.2690   58.4310 C.2   130  LEU130      0.2287
     36  O         20.7650  -25.4150   57.9640 O.2   130  LEU130     -0.2864
     37  CB        19.2410  -22.5590   57.4850 C.3   130  LEU130      0.0297
     38  CG        17.8940  -21.8380   57.4410 C.3   130  LEU130      0.0022
     39  CD1       17.9740  -20.6810   56.4560 C.3   130  LEU130      0.0001
     40  CD2       16.7730  -22.8010   57.0680 C.3   130  LEU130      0.0001
     41  N         23.0300  -25.3730   60.7020 N.3   132  TYR132     -0.1241
     42  CA        23.1120  -26.4860   61.6160 C.3   132  TYR132      0.1605
     43  C         22.3050  -27.6840   61.1060 C.2   132  TYR132      0.2264
     44  O         22.7380  -28.8350   61.2660 O.2   132  TYR132     -0.2867
     45  CB        22.6220  -26.0550   62.9920 C.3   132  TYR132      0.0534
     46  CG        23.1500  -26.9140   64.1130 C.ar  132  TYR132     -0.0201
     47  CD1       24.5280  -27.0730   64.3080 C.ar  132  TYR132     -0.0009
     48  CD2       22.2820  -27.5480   64.9970 C.ar  132  TYR132     -0.0009
     49  CE1       25.0180  -27.8380   65.3510 C.ar  132  TYR132      0.0417
     50  CE2       22.7620  -28.3060   66.0450 C.ar  132  TYR132      0.0417
     51  CZ        24.1290  -28.4520   66.2190 C.ar  132  TYR132      0.1957
     52  OH        24.6050  -29.2160   67.2640 O.3   132  TYR132     -0.2866
     53  N         21.2780  -33.5600   66.4990 N.3   139  MET139     -0.1245
     54  CA        20.8330  -32.2350   66.9180 C.3   139  MET139      0.1570
     55  C         20.1830  -31.4870   65.7630 C.2   139  MET139      0.2261
     56  O         19.2270  -30.7420   65.9560 O.2   139  MET139     -0.2867
     57  CB        21.9870  -31.4290   67.5080 C.3   139  MET139      0.0387
     58  CG        22.5490  -32.0050   68.8010 C.3   139  MET139      0.0595
     59  SD        21.3750  -32.0830   70.1830 S.3   139  MET139     -0.1393
     60  CE        20.7180  -33.7590   69.9990 C.3   139  MET139      0.0692
     61  N         16.4610  -30.2000   65.9720 N.3   143  GLY143     -0.1225
     62  CA        16.4410  -28.7490   65.9910 C.3   143  GLY143      0.1811
     63  C         15.4720  -28.3040   64.9110 C.2   143  GLY143      0.2280
     64  O         14.6030  -27.4660   65.1370 O.2   143  GLY143     -0.2866
     65  N         11.7990  -28.9740   66.1330 N.3   146  VAL146     -0.1231
     66  CA        11.3320  -28.0510   67.1470 C.3   146  VAL146      0.1692
     67  C         11.1000  -26.6570   66.5980 C.2   146  VAL146      0.2592
     68  O         10.0160  -26.0740   66.7750 O.2   146  VAL146     -0.2718
     69  CB        12.3220  -27.9990   68.3420 C.3   146  VAL146      0.0266
     70  CG1       11.9890  -26.8400   69.2720 C.3   146  VAL146      0.0020
     71  CG2       12.2700  -29.3210   69.1200 C.3   146  VAL146      0.0020
     72  N         12.1060  -26.1520   65.8880 N.am  147  ILE147     -0.1966
     73  CA        12.0490  -24.8170   65.3400 C.3   147  ILE147      0.1727
     74  C         10.9920  -24.6210   64.2710 C.2   147  ILE147      0.2616
     75  O         10.3140  -23.5980   64.2660 O.2   147  ILE147     -0.2715
     76  CB        13.4550  -24.3460   64.9250 C.3   147  ILE147      0.0290
     77  CG1       14.3140  -24.2510   66.1960 C.3   147  ILE147      0.0022
     78  CG2       13.3960  -22.9990   64.2200 C.3   147  ILE147      0.0023
     79  CD1       15.7420  -23.8280   65.9870 C.3   147  ILE147      0.0001
     80  N         10.8070  -25.5970   63.3900 N.am  148  THR148     -0.1951
     81  CA         9.7700  -25.4440   62.3790 C.3   148  THR148      0.1897
     82  C          8.4260  -25.4980   63.1070 C.2   148  THR148      0.2313
     83  O          7.5400  -24.6890   62.8390 O.2   148  THR148     -0.2863
     84  CB         9.8340  -26.5260   61.3000 C.3   148  THR148      0.1794
     85  OG1        9.8700  -27.8080   61.9260 O.3   148  THR148     -0.2208
     86  CG2       11.0620  -26.3520   60.4350 C.3   148  THR148      0.0378
     87  N          7.7090  -24.3800   65.8360 N.3   150  LEU150     -0.1231
     88  CA         7.4840  -23.1380   66.5570 C.3   150  LEU150      0.1693
     89  C          6.2910  -22.4230   65.9270 C.2   150  LEU150      0.2592
     90  O          5.5330  -21.7390   66.6060 O.2   150  LEU150     -0.2718
     91  CB         8.7130  -22.2540   66.4140 C.3   150  LEU150      0.0284
     92  CG         9.4800  -21.7060   67.6190 C.3   150  LEU150      0.0019
     93  CD1        9.5120  -22.6580   68.7810 C.3   150  LEU150      0.0001
     94  CD2       10.8800  -21.3950   67.1460 C.3   150  LEU150      0.0001
     95  N          6.1120  -22.6290   64.6240 N.am  151  PHE151     -0.1976
     96  CA         5.0350  -21.9990   63.8680 C.3   151  PHE151      0.1639
     97  C          3.6620  -22.6570   63.9900 C.2   151  PHE151      0.2290
     98  O          2.6570  -22.1070   63.5260 O.2   151  PHE151     -0.2864
     99  CB         5.4550  -21.8570   62.4030 C.3   151  PHE151      0.0560
    100  CG         6.6710  -21.0060   62.2230 C.ar  151  PHE151     -0.0200
    101  CD1        6.5540  -19.6300   62.0960 C.ar  151  PHE151     -0.0042
    102  CD2        7.9370  -21.5650   62.2780 C.ar  151  PHE151     -0.0042
    103  CE1        7.6800  -18.8190   62.0370 C.ar  151  PHE151     -0.0003
    104  CE2        9.0720  -20.7680   62.2200 C.ar  151  PHE151     -0.0003
    105  CZ         8.9420  -19.3880   62.1010 C.ar  151  PHE151     -0.0000
    106  N          6.5050  -25.8350   55.4750 N.3   165  LEU165     -0.1245
    107  CA         7.9440  -25.7050   55.7080 C.3   165  LEU165      0.1561
    108  C          8.6140  -27.0780   55.5580 C.2   165  LEU165      0.2260
    109  O          9.6860  -27.1740   54.9730 O.2   165  LEU165     -0.2867
    110  CB         8.2370  -25.1340   57.1000 C.3   165  LEU165      0.0270
    111  CG         7.8020  -23.6990   57.3840 C.3   165  LEU165      0.0019
    112  CD1        7.8950  -23.4290   58.8550 C.3   165  LEU165      0.0001
    113  CD2        8.6310  -22.7150   56.5910 C.3   165  LEU165      0.0001
    114  N         16.3540  -26.3440   53.1140 N.3   179  PHE179     -0.1241
    115  CA        17.1190  -25.6540   54.1470 C.3   179  PHE179      0.1605
    116  C         18.5300  -25.3490   53.6420 C.2   179  PHE179      0.2264
    117  O         19.0830  -24.3020   53.9620 O.2   179  PHE179     -0.2867
    118  CB        17.1430  -26.4480   55.4570 C.3   179  PHE179      0.0534
    119  CG        15.8750  -26.3140   56.2920 C.ar  179  PHE179     -0.0203
    120  CD1       14.7860  -25.5640   55.8440 C.ar  179  PHE179     -0.0042
    121  CD2       15.7890  -26.9180   57.5380 C.ar  179  PHE179     -0.0042
    122  CE1       13.6350  -25.4180   56.6280 C.ar  179  PHE179     -0.0003
    123  CE2       14.6540  -26.7790   58.3240 C.ar  179  PHE179     -0.0003
    124  CZ        13.5670  -26.0230   57.8650 C.ar  179  PHE179     -0.0000
    125  N         18.0900  -22.3830   51.2280 N.3   182  LEU182     -0.1245
    126  CA        17.8500  -21.1500   51.9540 C.3   182  LEU182      0.1561
    127  C         19.0890  -20.7280   52.7640 C.2   182  LEU182      0.2260
    128  O         19.3210  -19.5300   52.9790 O.2   182  LEU182     -0.2867
    129  CB        16.6450  -21.3140   52.8690 C.3   182  LEU182      0.0270
    130  CG        15.2220  -20.9080   52.4480 C.3   182  LEU182      0.0019
    131  CD1       15.1320  -20.3750   51.0300 C.3   182  LEU182      0.0001
    132  CD2       14.2850  -22.0830   52.6740 C.3   182  LEU182      0.0001
    133  N         19.8280  -33.9040   74.4670 N.3   269  ILE269     -0.1231
    134  CA        19.5820  -32.8020   73.5490 C.3   269  ILE269      0.1692
    135  C         19.6940  -31.4290   74.1990 C.2   269  ILE269      0.2592
    136  O         19.0940  -31.1650   75.2460 O.2   269  ILE269     -0.2718
    137  CB        18.2070  -32.9230   72.8600 C.3   269  ILE269      0.0266
    138  CG1       18.0540  -31.8170   71.8000 C.3   269  ILE269      0.0019
    139  CG2       17.0610  -32.8720   73.9010 C.3   269  ILE269      0.0020
    140  CD1       16.8920  -32.0380   70.8320 C.3   269  ILE269      0.0001
    141  N         20.5020  -30.5660   73.5840 N.am  270  VAL270     -0.1966
    142  CA        20.6970  -29.1880   74.0470 C.3   270  VAL270      0.1712
    143  C         20.9290  -28.3040   72.8160 C.2   270  VAL270      0.2458
    144  O         21.6070  -28.7100   71.8760 O.2   270  VAL270     -0.2730
    145  CB        21.9180  -29.0560   75.0290 C.3   270  VAL270      0.0289
    146  CG1       21.9680  -27.6410   75.6320 C.3   270  VAL270      0.0023
    147  CG2       21.8300  -30.0890   76.1400 C.3   270  VAL270      0.0023
    148  N         20.3110  -27.1150   72.7760 N.am  271  PRO271     -0.2716
    149  CA        20.4650  -26.1880   71.6470 C.3   271  PRO271      0.1536
    150  C         21.8810  -25.6180   71.6010 C.2   271  PRO271      0.2598
    151  O         22.5970  -25.6390   72.6020 O.2   271  PRO271     -0.2715
    152  CB        19.4820  -25.0650   71.9850 C.3   271  PRO271      0.0310
    153  CG        18.5080  -25.6910   72.8850 C.3   271  PRO271      0.0237
    154  CD        19.3310  -26.5970   73.7420 C.3   271  PRO271      0.0939
    155  N         22.2670  -25.0880   70.4460 N.am  272  GLU272     -0.1978
    156  CA        23.5810  -24.4870   70.2700 C.3   272  GLU272      0.1602
    157  C         23.7050  -23.3690   71.3250 C.2   272  GLU272      0.2287
    158  O         22.7540  -22.6160   71.5670 O.2   272  GLU272     -0.2864
    159  CB        23.7300  -23.9300   68.8420 C.3   272  GLU272      0.0415
    160  CG        23.4450  -24.9270   67.7130 C.3   272  GLU272      0.1163
    161  CD        21.9520  -25.0330   67.3370 C.2   272  GLU272      0.3649
    162  OE1       21.1540  -25.6260   68.1030 O.co2 272  GLU272     -0.2457
    163  OE2       21.5810  -24.5560   66.2440 O.co2 272  GLU272     -0.2457
    164  N         21.9410  -19.8480   71.3310 N.3   275  LEU275     -0.1245
    165  CA        20.4780  -19.8080   71.3660 C.3   275  LEU275      0.1561
    166  C         19.9110  -20.1570   72.7510 C.2   275  LEU275      0.2260
    167  O         18.7060  -20.0180   72.9760 O.2   275  LEU275     -0.2867
    168  CB        19.9010  -20.8070   70.3680 C.3   275  LEU275      0.0270
    169  CG        20.4130  -20.7300   68.9350 C.3   275  LEU275      0.0019
    170  CD1       19.8190  -21.8720   68.1490 C.3   275  LEU275      0.0001
    171  CD2       20.0520  -19.3900   68.3110 C.3   275  LEU275      0.0001
    172  N         17.5200  -17.6060   74.8030 N.3   278  PHE278     -0.1227
    173  CA        16.1970  -17.5150   74.1860 C.3   278  PHE278      0.1736
    174  C         15.3900  -18.7780   74.4290 C.2   278  PHE278      0.2595
    175  O         14.1750  -18.7200   74.6040 O.2   278  PHE278     -0.2718
    176  CB        16.3340  -17.2370   72.6910 C.3   278  PHE278      0.0547
    177  CG        17.0810  -15.9810   72.4010 C.ar  278  PHE278     -0.0202
    178  CD1       18.3930  -16.0270   71.9400 C.ar  278  PHE278     -0.0042
    179  CD2       16.5080  -14.7520   72.6720 C.ar  278  PHE278     -0.0042
    180  CE1       19.1240  -14.8560   71.7620 C.ar  278  PHE278     -0.0003
    181  CE2       17.2220  -13.5800   72.5020 C.ar  278  PHE278     -0.0003
    182  CZ        18.5300  -13.6270   72.0470 C.ar  278  PHE278     -0.0000
    183  N         16.0890  -19.9080   74.4570 N.am  279  TYR279     -0.1976
    184  CA        15.5000  -21.2210   74.7100 C.3   279  TYR279      0.1639
    185  C         14.9820  -21.2940   76.1540 C.2   279  TYR279      0.2290
    186  O         13.9030  -21.8230   76.4260 O.2   279  TYR279     -0.2864
    187  CB        16.5840  -22.2640   74.4720 C.3   279  TYR279      0.0560
    188  CG        16.3220  -23.6780   74.9410 C.ar  279  TYR279     -0.0198
    189  CD1       15.4740  -24.5240   74.2350 C.ar  279  TYR279     -0.0009
    190  CD2       17.0640  -24.2220   75.9940 C.ar  279  TYR279     -0.0009
    191  CE1       15.3840  -25.8770   74.5430 C.ar  279  TYR279      0.0417
    192  CE2       16.9850  -25.5730   76.3110 C.ar  279  TYR279      0.0417
    193  CZ        16.1510  -26.4000   75.5770 C.ar  279  TYR279      0.1957
    194  OH        16.1530  -27.7570   75.8260 O.3   279  TYR279     -0.2866
    195  N         11.7410  -19.3930   76.5040 N.3   282  LEU282     -0.1245
    196  CA        10.6070  -20.1960   76.0430 C.3   282  LEU282      0.1561
    197  C         10.1790  -21.2580   77.0720 C.2   282  LEU282      0.2260
    198  O          8.9860  -21.4360   77.3210 O.2   282  LEU282     -0.2867
    199  CB        10.9130  -20.8620   74.6950 C.3   282  LEU282      0.0270
    200  CG         9.8370  -21.8260   74.1630 C.3   282  LEU282      0.0019
    201  CD1        9.6560  -21.7030   72.6490 C.3   282  LEU282      0.0001
    202  CD2       10.1910  -23.2380   74.5310 C.3   282  LEU282      0.0001
    203  N          9.4180  -15.7370   73.7490 N.3   295  MET295     -0.1230
    204  CA        10.7470  -15.9090   73.1710 C.3   295  MET295      0.1702
    205  C         10.9980  -14.9440   72.0110 C.2   295  MET295      0.2592
    206  O         12.1010  -14.4050   71.8770 O.2   295  MET295     -0.2718
    207  CB        10.9770  -17.3440   72.6950 C.3   295  MET295      0.0401
    208  CG        12.3810  -17.5430   72.1300 C.3   295  MET295      0.0596
    209  SD        12.6270  -19.1150   71.3460 S.3   295  MET295     -0.1393
    210  CE        11.7270  -18.8330   69.7940 C.3   295  MET295      0.0692
    211  N          9.9970  -14.7660   71.1510 N.am  296  PHE296     -0.1976
    212  CA        10.1230  -13.8380   70.0260 C.3   296  PHE296      0.1639
    213  C         10.0710  -12.3870   70.4990 C.2   296  PHE296      0.2290
    214  O         10.7030  -11.5080   69.9040 O.2   296  PHE296     -0.2864
    215  CB         9.0460  -14.0900   68.9820 C.3   296  PHE296      0.0560
    216  CG         9.4310  -15.1160   67.9590 C.ar  296  PHE296     -0.0200
    217  CD1        8.7870  -16.3420   67.9040 C.ar  296  PHE296     -0.0042
    218  CD2       10.4300  -14.8430   67.0290 C.ar  296  PHE296     -0.0042
    219  CE1        9.1240  -17.2840   66.9410 C.ar  296  PHE296     -0.0003
    220  CE2       10.7750  -15.7870   66.0520 C.ar  296  PHE296     -0.0003
    221  CZ        10.1150  -17.0090   66.0160 C.ar  296  PHE296     -0.0000
    222  N         13.3820  -10.7740   71.5000 N.3   299  ILE299     -0.1245
    223  CA        14.2090  -10.1570   70.4710 C.3   299  ILE299      0.1561
    224  C         13.6090   -8.8070   70.0740 C.2   299  ILE299      0.2260
    225  O         14.3210   -7.8020   70.0050 O.2   299  ILE299     -0.2867
    226  CB        14.3490  -11.0710   69.2370 C.3   299  ILE299      0.0252
    227  CG1       15.1850  -12.3020   69.6040 C.3   299  ILE299      0.0019
    228  CG2       15.0090  -10.3190   68.0860 C.3   299  ILE299      0.0019
    229  CD1       15.2680  -13.3360   68.5080 C.3   299  ILE299      0.0001
@<TRIPOS>BOND
     1   131   130    1
     2   125   126    1
     3   126   127    1
     4   126   129    1
     5   130   132    1
     6   130   129    1
     7   127   128    2
     8   114   115    1
     9   116   117    2
    10   116   115    1
    11   115   118    1
    12   109   108    2
    13   118   119    1
    14   106   107    1
    15   108   107    1
    16   107   110    1
    17   120   119   ar
    18   120   122   ar
    19   119   121   ar
    20    39    38    1
    21   113   111    1
    22   122   124   ar
    23    40    38    1
    24   110   111    1
    25   111   112    1
    26    38    37    1
    27    37    34    1
    28   121   123   ar
    29   124   123   ar
    30    36    35    2
    31    35    34    1
    32    34    33    1
    33    20    19    2
    34    33    24   am
    35    19    18    1
    36    21    18    1
    37    86    84    1
    38    41    42    1
    39    31    29   ar
    40    31    32   ar
    41    24    25    2
    42    24    23    1
    43    43    44    2
    44    43    42    1
    45    18    17    1
    46    29    27   ar
    47    84    85    1
    48    84    81    1
    49    32    30   ar
    50    42    45    1
    51    17    11   am
    52   103   101   ar
    53   103   105   ar
    54    22    23    1
    55   101   100   ar
    56   105   104   ar
    57     3     4    2
    58     3     2    1
    59   104   102   ar
    60   100   102   ar
    61   100    99    1
    62    27    26    1
    63    27    28   ar
    64    23    26    1
    65    81    82    1
    66    81    80    1
    67    99    96    1
    68    30    28   ar
    69     7     5    1
    70    83    82    2
    71    11    12    2
    72    11    10    1
    73    45    46    1
    74     9    10    1
    75     5     2    1
    76     5     6    1
    77    80    74   am
    78     2     1    1
    79    98    97    2
    80    10    13    1
    81    96    97    1
    82    96    95    1
    83    46    47   ar
    84    46    48   ar
    85     8     6    1
    86    78    76    1
    87    75    74    2
    88    74    73    1
    89    47    49   ar
    90    95    89   am
    91    63    64    2
    92    63    62    1
    93    13    15    1
    94    13    14    1
    95    76    73    1
    96    76    77    1
    97    48    50   ar
    98    73    72    1
    99    49    51   ar
   100    55    56    2
   101    55    54    1
   102    87    88    1
   103    72    67   am
   104    89    88    1
   105    89    90    2
   106    14    16    1
   107    61    62    1
   108    79    77    1
   109   221   220   ar
   110   221   219   ar
   111    50    51   ar
   112   220   218   ar
   113    65    66    1
   114    51    52    1
   115   163   161   ar
   116    91    88    1
   117    91    92    1
   118    53    54    1
   119    67    68    2
   120    67    66    1
   121    54    57    1
   122   219   217   ar
   123   218   216   ar
   124    94    92    1
   125    66    69    1
   126   161   160    1
   127   161   162   ar
   128    57    58    1
   129    92    93    1
   130   160   159    1
   131   217   216   ar
   132   216   215    1
   133   228   226    1
   134   170   169    1
   135   171   169    1
   136    69    71    1
   137    69    70    1
   138   229   227    1
   139    58    59    1
   140   159   156    1
   141   169   168    1
   142   215   212    1
   143   226   227    1
   144   226   223    1
   145   210   209    1
   146   214   213    2
   147    60    59    1
   148   225   224    2
   149   212   213    1
   150   212   211    1
   151   224   223    1
   152   156   155    1
   153   156   157    1
   154   168   165    1
   155   155   150   am
   156   223   222    1
   157   140   138    1
   158   211   205   am
   159   157   158    2
   160   164   165    1
   161   209   208    1
   162   165   166    1
   163   150   149    1
   164   150   151    2
   165   149   152    1
   166   149   148    1
   167   180   178   ar
   168   180   182   ar
   169   138   137    1
   170   144   143    2
   171   206   205    2
   172   178   177   ar
   173   152   153    1
   174   205   204    1
   175   182   181   ar
   176   208   207    1
   177   177   179   ar
   178   177   176    1
   179   181   179   ar
   180   201   200    1
   181   176   173    1
   182   207   204    1
   183   166   167    2
   184   148   143   am
   185   148   154    1
   186   143   142    1
   187   137   134    1
   188   137   139    1
   189   153   154    1
   190   204   203    1
   191   134   135    1
   192   134   133    1
   193   141   142    1
   194   141   135   am
   195   142   145    1
   196   200   202    1
   197   200   199    1
   198   173   174    1
   199   173   172    1
   200   135   136    2
   201   189   191   ar
   202   189   188   ar
   203   174   183   am
   204   174   175    2
   205   183   184    1
   206   187   184    1
   207   187   188    1
   208   191   193   ar
   209   199   196    1
   210   184   185    1
   211   188   190   ar
   212   145   146    1
   213   145   147    1
   214   193   194    1
   215   193   192   ar
   216   190   192   ar
   217   196   195    1
   218   196   197    1
   219   185   186    2
   220   197   198    2
