@<TRIPOS>MOLECULE
tmp/3cxhC06.pdb
 111 103 0 0 0
SMALL
GASTEIGER

@<TRIPOS>ATOM
      1  N         34.2130   -9.1380   58.8880 N.3    38  LEU38      -0.1245
      2  CA        35.1880  -10.2160   58.7000 C.3    38  LEU38       0.1561
      3  C         34.4770  -11.5520   58.8740 C.2    38  LEU38       0.2260
      4  O         34.7040  -12.4830   58.1110 O.2    38  LEU38      -0.2867
      5  CB        36.2970  -10.1250   59.7560 C.3    38  LEU38       0.0270
      6  CG        37.7390  -10.5580   59.4400 C.3    38  LEU38       0.0019
      7  CD1       38.4510  -10.8900   60.7360 C.3    38  LEU38       0.0001
      8  CD2       37.8090  -11.7520   58.5110 C.3    38  LEU38       0.0001
      9  N         32.3540  -12.4780   55.7870 N.3    41  VAL41      -0.1231
     10  CA        33.2170  -12.9240   54.6940 C.3    41  VAL41       0.1692
     11  C         33.7790  -14.3180   54.9760 C.2    41  VAL41       0.2591
     12  O         33.8320  -15.1530   54.0730 O.2    41  VAL41      -0.2718
     13  CB        34.3780  -11.9200   54.4220 C.3    41  VAL41       0.0266
     14  CG1       35.3120  -12.4520   53.3400 C.3    41  VAL41       0.0020
     15  CG2       33.8090  -10.5540   53.9920 C.3    41  VAL41       0.0020
     16  N         34.1630  -14.5890   56.2260 N.am   42  ILE42      -0.1980
     17  CA        34.7050  -15.9050   56.5720 C.3    42  ILE42       0.1595
     18  C         33.6500  -16.9750   56.3480 C.2    42  ILE42       0.2287
     19  O         33.9400  -18.0270   55.7730 O.2    42  ILE42      -0.2864
     20  CB        35.2530  -15.9680   58.0420 C.3    42  ILE42       0.0276
     21  CG1       36.6240  -15.2760   58.1160 C.3    42  ILE42       0.0022
     22  CG2       35.3920  -17.4190   58.5220 C.3    42  ILE42       0.0022
     23  CD1       37.1400  -15.0630   59.5350 C.3    42  ILE42       0.0001
     24  N         32.8500  -17.3060   52.2940 N.3    45  VAL45      -0.1231
     25  CA        33.9240  -17.9810   51.5660 C.3    45  VAL45       0.1692
     26  C         34.0820  -19.4480   51.9810 C.2    45  VAL45       0.2592
     27  O         34.0780  -20.3360   51.1230 O.2    45  VAL45      -0.2718
     28  CB        35.2770  -17.2400   51.6980 C.3    45  VAL45       0.0266
     29  CG1       36.3540  -17.9910   50.9330 C.3    45  VAL45       0.0020
     30  CG2       35.1740  -15.8270   51.1460 C.3    45  VAL45       0.0020
     31  N         34.1710  -19.7270   53.2800 N.am   46  THR46      -0.1953
     32  CA        34.3120  -21.1300   53.7030 C.3    46  THR46       0.1897
     33  C         33.0910  -21.9560   53.2920 C.2    46  THR46       0.2313
     34  O         33.2180  -23.1260   52.9150 O.2    46  THR46      -0.2863
     35  CB        34.5300  -21.2900   55.2210 C.3    46  THR46       0.1794
     36  OG1       33.4360  -20.6920   55.9350 O.3    46  THR46      -0.2208
     37  CG2       35.8490  -20.6630   55.6390 C.3    46  THR46       0.0378
     38  N         42.4620  -30.0650   53.2130 N.3    74  ASN74      -0.1240
     39  CA        42.2080  -28.9150   54.0710 C.3    74  ASN74       0.1653
     40  C         40.7100  -28.7480   54.3700 C.2    74  ASN74       0.2266
     41  O         40.2810  -27.7300   54.9200 O.2    74  ASN74      -0.2867
     42  CB        42.7730  -27.6320   53.4490 C.3    74  ASN74       0.1155
     43  CG        44.2560  -27.7400   53.1120 C.2    74  ASN74       0.2627
     44  OD1       45.0710  -28.1680   53.9340 O.2    74  ASN74      -0.2716
     45  ND2       44.6100  -27.3430   51.8930 N.am   74  ASN74      -0.0877
     46  N         39.6750  -27.9390   57.8910 N.3    77  ILE77      -0.1245
     47  CA        39.9430  -26.5440   58.2120 C.3    77  ILE77       0.1561
     48  C         38.7470  -25.6940   57.7750 C.2    77  ILE77       0.2260
     49  O         38.3900  -24.7290   58.4450 O.2    77  ILE77      -0.2867
     50  CB        41.1780  -26.0120   57.4550 C.3    77  ILE77       0.0252
     51  CG1       42.4180  -26.8250   57.8190 C.3    77  ILE77       0.0019
     52  CG2       41.3650  -24.5190   57.7290 C.3    77  ILE77       0.0019
     53  CD1       43.6980  -26.2570   57.2470 C.3    77  ILE77       0.0001
     54  N         36.5290  -23.9700   60.5490 N.3    81  LEU81      -0.1245
     55  CA        36.5050  -22.5120   60.4620 C.3    81  LEU81       0.1561
     56  C         35.0520  -22.0500   60.3760 C.2    81  LEU81       0.2260
     57  O         34.6230  -21.1720   61.1240 O.2    81  LEU81      -0.2867
     58  CB        37.2600  -22.0400   59.2370 C.3    81  LEU81       0.0270
     59  CG        38.5200  -21.2420   59.5250 C.3    81  LEU81       0.0019
     60  CD1       39.1720  -20.8730   58.1940 C.3    81  LEU81       0.0001
     61  CD2       38.1610  -20.0040   60.3320 C.3    81  LEU81       0.0001
     62  N         43.6740   -9.3540   63.9030 N.3   234  PHE234     -0.1241
     63  CA        44.6620  -10.3730   64.2140 C.3   234  PHE234      0.1605
     64  C         44.3330  -11.0840   65.5270 C.2   234  PHE234      0.2264
     65  O         44.4310  -12.3170   65.6180 O.2   234  PHE234     -0.2867
     66  CB        46.0680   -9.7780   64.2350 C.3   234  PHE234      0.0534
     67  CG        46.6010   -9.4440   62.8690 C.ar  234  PHE234     -0.0203
     68  CD1       47.3290   -8.2790   62.6590 C.ar  234  PHE234     -0.0042
     69  CD2       46.4110  -10.3220   61.8010 C.ar  234  PHE234     -0.0042
     70  CE1       47.8730   -7.9920   61.4010 C.ar  234  PHE234     -0.0003
     71  CE2       46.9450  -10.0490   60.5390 C.ar  234  PHE234     -0.0003
     72  CZ        47.6810   -8.8820   60.3360 C.ar  234  PHE234     -0.0000
     73  N         41.5990  -13.4930   64.8010 N.3   237  MET237     -0.1245
     74  CA        42.1190  -14.6320   64.0520 C.3   237  MET237      0.1570
     75  C         42.9710  -15.5590   64.9310 C.2   237  MET237      0.2261
     76  O         43.0210  -16.7740   64.7220 O.2   237  MET237     -0.2867
     77  CB        42.9550  -14.1550   62.8610 C.3   237  MET237      0.0387
     78  CG        42.1690  -13.5460   61.7140 C.3   237  MET237      0.0595
     79  SD        43.2510  -13.2150   60.2950 S.3   237  MET237     -0.1393
     80  CE        42.1010  -12.4370   59.1190 C.3   237  MET237      0.0692
     81  N         40.4500  -17.5090   67.2320 N.3   240  LEU240     -0.1231
     82  CA        39.7070  -18.4410   66.3790 C.3   240  LEU240      0.1693
     83  C         40.5910  -19.6100   65.9060 C.2   240  LEU240      0.2591
     84  O         40.1230  -20.7480   65.8000 O.2   240  LEU240     -0.2718
     85  CB        39.1100  -17.6980   65.1740 C.3   240  LEU240      0.0284
     86  CG        38.3040  -18.4960   64.1350 C.3   240  LEU240      0.0019
     87  CD1       37.1510  -19.2760   64.7830 C.3   240  LEU240      0.0001
     88  CD2       37.7700  -17.5410   63.0950 C.3   240  LEU240      0.0001
     89  N         41.8590  -19.3230   65.6220 N.am  241  ALA241     -0.1980
     90  CA        42.8050  -20.3490   65.1800 C.3   241  ALA241      0.1597
     91  C         43.0540  -21.3440   66.3050 C.2   241  ALA241      0.2287
     92  O         43.2280  -22.5390   66.0560 O.2   241  ALA241     -0.2864
     93  CB        44.1100  -19.7180   64.7470 C.3   241  ALA241      0.0319
     94  N         39.9800  -23.6360   66.1680 N.3   244  VAL244     -0.1231
     95  CA        40.0130  -24.4020   64.9230 C.3   244  VAL244      0.1692
     96  C         41.0630  -25.4980   64.9120 C.2   244  VAL244      0.2592
     97  O         40.7880  -26.6110   64.5060 O.2   244  VAL244     -0.2718
     98  CB        40.2090  -23.4680   63.6790 C.3   244  VAL244      0.0266
     99  CG1       40.4760  -24.2710   62.4210 C.3   244  VAL244      0.0020
    100  CG2       38.9760  -22.6220   63.4720 C.3   244  VAL244      0.0020
    101  N         42.2620  -25.2030   65.3880 N.am  245  PHE245     -0.1976
    102  CA        43.3170  -26.2100   65.3680 C.3   245  PHE245      0.1639
    103  C         43.5020  -27.0320   66.6440 C.2   245  PHE245      0.2290
    104  O         43.8740  -28.2150   66.5830 O.2   245  PHE245     -0.2864
    105  CB        44.6380  -25.5610   64.9620 C.3   245  PHE245      0.0560
    106  CG        44.6510  -25.0380   63.5510 C.ar  245  PHE245     -0.0200
    107  CD1       44.4100  -23.6980   63.2920 C.ar  245  PHE245     -0.0042
    108  CD2       44.9360  -25.8830   62.4850 C.ar  245  PHE245     -0.0042
    109  CE1       44.4570  -23.2020   61.9900 C.ar  245  PHE245     -0.0003
    110  CE2       44.9850  -25.3990   61.1860 C.ar  245  PHE245     -0.0003
    111  CZ        44.7450  -24.0510   60.9380 C.ar  245  PHE245     -0.0000
@<TRIPOS>BOND
     1    29    28    1
     2    27    26    2
     3    30    28    1
     4    25    28    1
     5    25    26    1
     6    25    24    1
     7    45    43   am
     8    26    31   am
     9    34    33    2
    10    43    42    1
    11    43    44    2
    12    38    39    1
    13    31    32    1
    14    33    32    1
    15    14    13    1
    16    42    39    1
    17    32    35    1
    18    15    13    1
    19    39    40    1
    20    12    11    2
    21    40    41    2
    22    13    10    1
    23    10    11    1
    24    10     9    1
    25    11    16   am
    26    35    37    1
    27    35    36    1
    28    19    18    2
    29    16    17    1
    30    18    17    1
    31    17    20    1
    32    53    51    1
    33    50    52    1
    34    50    51    1
    35    50    47    1
    36    48    47    1
    37    48    49    2
    38    46    47    1
    39    20    21    1
    40    20    22    1
    41     4     3    2
    42    21    23    1
    43    60    59    1
    44     8     6    1
    45     2     3    1
    46     2     1    1
    47     2     5    1
    48    80    79    1
    49    58    59    1
    50    58    55    1
    51     6     5    1
    52     6     7    1
    53    59    61    1
    54    79    78    1
    55    72    71   ar
    56    72    70   ar
    57    56    55    1
    58    56    57    2
    59    55    54    1
    60    71    69   ar
    61   111   110   ar
    62   111   109   ar
    63   110   108   ar
    64    70    68   ar
    65    78    77    1
    66    69    67   ar
    67   109   107   ar
    68    99    98    1
    69   108   106   ar
    70    68    67   ar
    71    77    74    1
    72    67    66    1
    73    88    86    1
    74   107   106   ar
    75   100    98    1
    76   106   105    1
    77    98    95    1
    78    62    63    1
    79    74    73    1
    80    74    75    1
    81    86    87    1
    82    86    85    1
    83    63    66    1
    84    63    64    1
    85    97    96    2
    86    76    75    2
    87    93    90    1
    88    96    95    1
    89    96   101   am
    90    95    94    1
    91   105   102    1
    92    85    82    1
    93    90    89    1
    94    90    91    1
    95   102   101    1
    96   102   103    1
    97    64    65    2
    98    89    83   am
    99    84    83    2
   100    83    82    1
   101    92    91    2
   102    82    81    1
   103   104   103    2
