@<TRIPOS>MOLECULE
tmp/3cxhO00.pdb
 111 114 0 0 0
SMALL
GASTEIGER

@<TRIPOS>ATOM
      1  N          9.9130  -49.4740    8.5070 N.3   137  TYR137     -0.1228
      2  CA        10.8250  -50.5370    8.1020 C.3   137  TYR137      0.1721
      3  C         10.3940  -51.1480    6.7570 C.2   137  TYR137      0.2437
      4  O          9.2940  -51.6840    6.6430 O.2   137  TYR137     -0.2733
      5  CB        10.8490  -51.6540    9.1490 C.3   137  TYR137      0.0547
      6  CG        11.5810  -51.3470   10.4350 C.ar  137  TYR137     -0.0200
      7  CD1       10.9060  -50.8130   11.5270 C.ar  137  TYR137     -0.0009
      8  CD2       12.9340  -51.6630   10.5850 C.ar  137  TYR137     -0.0009
      9  CE1       11.5460  -50.6080   12.7370 C.ar  137  TYR137      0.0417
     10  CE2       13.5900  -51.4630   11.7970 C.ar  137  TYR137      0.0417
     11  CZ        12.8810  -50.9360   12.8740 C.ar  137  TYR137      0.1957
     12  OH        13.4880  -50.7650   14.1010 O.3   137  TYR137     -0.2866
     13  N         11.2280  -51.0230    5.7100 N.am  138  PRO138     -0.2718
     14  CA        10.9160  -51.5870    4.3860 C.3   138  PRO138      0.1535
     15  C         11.1850  -53.0910    4.4680 C.2   138  PRO138      0.2599
     16  O         11.7780  -53.5490    5.4440 O.2   138  PRO138     -0.2715
     17  CB        11.9600  -50.9300    3.4780 C.3   138  PRO138      0.0310
     18  CG        12.3870  -49.7120    4.2290 C.3   138  PRO138      0.0237
     19  CD        12.4410  -50.1970    5.6400 C.3   138  PRO138      0.0939
     20  N         10.7750  -53.8620    3.4630 N.am  139  ASP139     -0.1958
     21  CA        11.0250  -55.3090    3.4900 C.3   139  ASP139      0.1840
     22  C         12.4960  -55.6130    3.2390 C.2   139  ASP139      0.2622
     23  O         13.0070  -56.6430    3.6670 O.2   139  ASP139     -0.2715
     24  CB        10.1910  -56.0460    2.4380 C.3   139  ASP139      0.1450
     25  CG         8.7120  -56.1100    2.7900 C.2   139  ASP139      0.3671
     26  OD1        8.3740  -56.2800    3.9860 O.co2 139  ASP139     -0.2456
     27  OD2        7.8850  -56.0090    1.8540 O.co2 139  ASP139     -0.2456
     28  N         13.1830  -54.6820    2.5920 N.am  140  GLU140     -0.1964
     29  CA        14.5850  -54.8690    2.2480 C.3   140  GLU140      0.1718
     30  C         15.2450  -53.4950    2.0860 C.2   140  GLU140      0.2458
     31  O         14.5870  -52.5250    1.7020 O.2   140  GLU140     -0.2730
     32  CB        14.6620  -55.6410    0.9150 C.3   140  GLU140      0.0428
     33  CG        15.8370  -56.6020    0.7600 C.3   140  GLU140      0.1163
     34  CD        15.7270  -57.8060    1.6670 C.2   140  GLU140      0.3649
     35  OE1       14.7500  -58.5700    1.5220 O.co2 140  GLU140     -0.2457
     36  OE2       16.6130  -57.9830    2.5300 O.co2 140  GLU140     -0.2457
     37  N         16.5480  -53.3910    2.3970 N.am  141  PRO141     -0.2727
     38  CA        17.2460  -52.1120    2.2620 C.3   141  PRO141      0.1402
     39  C         17.3780  -51.7330    0.7930 C.2   141  PRO141      0.2269
     40  O         17.1760  -52.5620   -0.0870 O.2   141  PRO141     -0.2865
     41  CB        18.6160  -52.4100    2.8730 C.3   141  PRO141      0.0296
     42  CG        18.8150  -53.8510    2.5640 C.3   141  PRO141      0.0237
     43  CD        17.4630  -54.4290    2.9020 C.3   141  PRO141      0.0939
     44  N         24.1060  -54.3100    4.6050 N.3   147  LEU147     -0.1231
     45  CA        23.6790  -54.2240    5.9880 C.3   147  LEU147      0.1678
     46  C         24.4910  -55.1020    6.9420 C.2   147  LEU147      0.2434
     47  O         24.5980  -56.3150    6.7360 O.2   147  LEU147     -0.2733
     48  CB        22.1940  -54.5840    6.0610 C.3   147  LEU147      0.0284
     49  CG        21.3280  -53.8070    7.0470 C.3   147  LEU147      0.0019
     50  CD1       21.5010  -52.3050    6.8460 C.3   147  LEU147      0.0001
     51  CD2       19.8760  -54.2160    6.8510 C.3   147  LEU147      0.0001
     52  N         25.0760  -54.4950    8.0010 N.am  148  PRO148     -0.2718
     53  CA        25.8840  -55.1930    9.0120 C.3   148  PRO148      0.1520
     54  C         25.0990  -56.3690    9.5830 C.2   148  PRO148      0.2440
     55  O         23.9550  -56.2070   10.0050 O.2   148  PRO148     -0.2731
     56  CB        26.0850  -54.1180   10.0830 C.3   148  PRO148      0.0310
     57  CG        26.1190  -52.8550    9.2950 C.3   148  PRO148      0.0237
     58  CD        24.9940  -53.0520    8.3070 C.3   148  PRO148      0.0939
     59  N         25.6880  -57.5750    9.5730 N.am  149  PRO149     -0.2716
     60  CA        25.0190  -58.7760   10.0990 C.3   149  PRO149      0.1536
     61  C         24.4780  -58.5130   11.5020 C.2   149  PRO149      0.2599
     62  O         25.2510  -58.3090   12.4420 O.2   149  PRO149     -0.2715
     63  CB        26.1450  -59.8070   10.1180 C.3   149  PRO149      0.0310
     64  CG        26.9770  -59.4000    8.9320 C.3   149  PRO149      0.0237
     65  CD        27.0410  -57.8950    9.0840 C.3   149  PRO149      0.0939
     66  N         23.1530  -58.4810   11.6220 N.am  150  GLY150     -0.1941
     67  CA        22.5220  -58.2080   12.9020 C.3   150  GLY150      0.2014
     68  C         21.7680  -56.8860   12.8730 C.2   150  GLY150      0.2640
     69  O         21.0910  -56.5260   13.8390 O.2   150  GLY150     -0.2714
     70  N         21.8780  -56.1620   11.7590 N.am  151  SER151     -0.1935
     71  CA        21.2020  -54.8740   11.5950 C.3   151  SER151      0.2055
     72  C         19.9290  -54.9040   10.7520 C.2   151  SER151      0.2643
     73  O         19.6660  -55.8490   10.0100 O.2   151  SER151     -0.2714
     74  CB        22.1600  -53.8310   11.0160 C.3   151  SER151      0.2130
     75  OG        22.9330  -53.2320   12.0400 O.3   151  SER151     -0.2179
     76  N         19.1560  -53.8300   10.8610 N.am  152  ASN152     -0.1957
     77  CA        17.9070  -53.6830   10.1310 C.3   152  ASN152      0.1819
     78  C         17.8670  -52.3040    9.4990 C.2   152  ASN152      0.2621
     79  O         18.2840  -51.3170   10.1120 O.2   152  ASN152     -0.2715
     80  CB        16.7290  -53.8510   11.0810 C.3   152  ASN152      0.1195
     81  CG        16.6920  -55.2190   11.7160 C.2   152  ASN152      0.2630
     82  OD1       16.1890  -56.1730   11.1270 O.2   152  ASN152     -0.2716
     83  ND2       17.2340  -55.3270   12.9220 N.am  152  ASN152     -0.0877
     84  N         17.3700  -52.2340    8.2700 N.am  153  TYR153     -0.1974
     85  CA        17.2910  -50.9610    7.5780 C.3   153  TYR153      0.1639
     86  C         16.0100  -50.1830    7.8620 C.2   153  TYR153      0.2290
     87  O         14.9050  -50.7250    7.7910 O.2   153  TYR153     -0.2864
     88  CB        17.4580  -51.1430    6.0660 C.3   153  TYR153      0.0560
     89  CG        17.4830  -49.8290    5.3230 C.ar  153  TYR153     -0.0198
     90  CD1       18.6840  -49.1520    5.1060 C.ar  153  TYR153     -0.0009
     91  CD2       16.2980  -49.2160    4.9190 C.ar  153  TYR153     -0.0009
     92  CE1       18.7030  -47.8900    4.5140 C.ar  153  TYR153      0.0417
     93  CE2       16.3040  -47.9520    4.3270 C.ar  153  TYR153      0.0417
     94  CZ        17.5080  -47.2950    4.1300 C.ar  153  TYR153      0.1957
     95  OH        17.5090  -46.0420    3.5690 O.3   153  TYR153     -0.2866
     96  N         14.7060  -54.5130   15.2470 N.3   165  ALA165     -0.1231
     97  CA        13.9900  -55.0200   14.0880 C.3   165  ALA165      0.1694
     98  C         12.5450  -54.5380   14.1820 C.2   165  ALA165      0.2591
     99  O         12.0940  -54.1040   15.2540 O.2   165  ALA165     -0.2718
    100  CB        14.0230  -56.5360   14.0890 C.3   165  ALA165      0.0304
    101  N         11.8240  -54.5960   13.0640 N.am  166  ARG166     -0.1980
    102  CA        10.4180  -54.2070   13.0520 C.3   166  ARG166      0.1597
    103  C          9.6800  -55.1340   14.0220 C.2   166  ARG166      0.2287
    104  O          9.8950  -56.3480   14.0010 O.2   166  ARG166     -0.2864
    105  CB         9.8350  -54.3690   11.6460 C.3   166  ARG166      0.0334
    106  CG         8.3540  -54.0390   11.5790 C.3   166  ARG166      0.0492
    107  CD         7.7110  -54.3840   10.2550 C.3   166  ARG166      0.2205
    108  NE         6.2550  -54.2850   10.3700 N.pl3 166  ARG166     -0.0865
    109  CZ         5.4090  -54.3260    9.3420 C.cat 166  ARG166      0.5346
    110  NH1        4.1070  -54.2330    9.5650 N.pl3 166  ARG166      0.1354
    111  NH2        5.8600  -54.4510    8.0950 N.pl3 166  ARG166      0.1354
@<TRIPOS>BOND
     1    40    39    2
     2    33    32    1
     3    33    34    1
     4    39    38    1
     5    32    29    1
     6    35    34   ar
     7    34    36   ar
     8    31    30    2
     9    27    25   ar
    10    30    29    1
    11    30    37   am
    12    29    28    1
    13    38    37    1
    14    38    41    1
    15    37    43    1
    16    24    25    1
    17    24    21    1
    18    42    41    1
    19    42    43    1
    20    28    22   am
    21    25    26   ar
    22    22    21    1
    23    22    23    2
    24    20    21    1
    25    20    15   am
    26    17    18    1
    27    17    14    1
    28    95    94    1
    29    94    93   ar
    30    94    92   ar
    31    18    19    1
    32    93    91   ar
    33    14    15    1
    34    14    13    1
    35    15    16    2
    36    92    90   ar
    37    44    45    1
    38    91    89   ar
    39    90    89   ar
    40    89    88    1
    41    19    13    1
    42    13     3   am
    43    45    48    1
    44    45    46    1
    45    48    49    1
    46    88    85    1
    47     4     3    2
    48    47    46    2
    49     3     2    1
    50    50    49    1
    51    51    49    1
    52    46    52   am
    53    85    86    1
    54    85    84    1
    55    87    86    2
    56    52    58    1
    57    52    53    1
    58   111   109    1
    59     2     1    1
    60     2     5    1
    61    84    78   am
    62    58    57    1
    63    64    65    1
    64    64    63    1
    65    53    54    1
    66    53    56    1
    67    65    59    1
    68     5     6    1
    69    57    56    1
    70   109   110    1
    71   109   108    2
    72    78    79    2
    73    78    77    1
    74    59    54   am
    75    59    60    1
    76    54    55    2
    77    73    72    2
    78    60    63    1
    79    60    61    1
    80    77    76    1
    81    77    80    1
    82   107   108    1
    83   107   106    1
    84     6     8   ar
    85     6     7   ar
    86     8    10   ar
    87    72    76   am
    88    72    71    1
    89    74    71    1
    90    74    75    1
    91    80    81    1
    92    82    81    2
    93    61    66   am
    94    61    62    2
    95     7     9   ar
    96   106   105    1
    97    71    70    1
    98    66    67    1
    99   105   102    1
   100    81    83   am
   101    70    68   am
   102    10    11   ar
   103     9    11   ar
   104    68    67    1
   105    68    69    2
   106    11    12    1
   107   102   101    1
   108   102   103    1
   109   101    98   am
   110   104   103    2
   111    97   100    1
   112    97    98    1
   113    97    96    1
   114    98    99    2
