@<TRIPOS>MOLECULE
tmp/3cxiB02.pdb
 187 181 0 0 0
SMALL
GASTEIGER

@<TRIPOS>ATOM
      1  N         27.7600   45.6350   21.1700 N.3     2  LEU2       -0.1231
      2  CA        26.3970   45.3350   20.7370 C.3     2  LEU2        0.1693
      3  C         25.5670   46.5870   20.7240 C.2     2  LEU2        0.2592
      4  O         24.6160   46.6890   19.9420 O.2     2  LEU2       -0.2718
      5  CB        25.7140   44.3170   21.6510 C.3     2  LEU2        0.0284
      6  CG        26.0510   42.8390   21.5230 C.3     2  LEU2        0.0019
      7  CD1       25.9270   42.4090   20.0630 C.3     2  LEU2        0.0001
      8  CD2       27.4420   42.5910   22.0650 C.3     2  LEU2        0.0001
      9  N         25.9080   47.5490   21.5750 N.am    3  PHE3       -0.1976
     10  CA        25.1310   48.7840   21.5850 C.3     3  PHE3        0.1639
     11  C         25.2200   49.4240   20.1980 C.2     3  PHE3        0.2290
     12  O         24.2060   49.8230   19.6160 O.2     3  PHE3       -0.2864
     13  CB        25.6560   49.8160   22.5990 C.3     3  PHE3        0.0560
     14  CG        25.6880   49.3390   24.0350 C.ar    3  PHE3       -0.0200
     15  CD1       26.8160   48.6920   24.5530 C.ar    3  PHE3       -0.0042
     16  CD2       24.6080   49.5770   24.8810 C.ar    3  PHE3       -0.0042
     17  CE1       26.8640   48.2890   25.9030 C.ar    3  PHE3       -0.0003
     18  CE2       24.6470   49.1810   26.2270 C.ar    3  PHE3       -0.0003
     19  CZ        25.7780   48.5360   26.7350 C.ar    3  PHE3       -0.0000
     20  N         26.2710   47.9840   17.4090 N.3     5  LEU5       -0.1231
     21  CA        25.7420   47.0680   16.4240 C.3     5  LEU5        0.1693
     22  C         24.2240   47.1880   16.3830 C.2     5  LEU5        0.2593
     23  O         23.6260   47.3500   15.3280 O.2     5  LEU5       -0.2718
     24  CB        26.1430   45.6380   16.7570 C.3     5  LEU5        0.0284
     25  CG        25.4050   44.5850   15.9030 C.3     5  LEU5        0.0019
     26  CD1       25.7520   44.8200   14.4400 C.3     5  LEU5        0.0001
     27  CD2       25.8090   43.1780   16.3260 C.3     5  LEU5        0.0001
     28  N         23.6050   47.1350   17.5480 N.am    6  GLY6       -0.1942
     29  CA        22.1610   47.2130   17.5730 C.3     6  GLY6        0.2014
     30  C         21.6610   48.4940   16.9700 C.2     6  GLY6        0.2638
     31  O         20.6620   48.5150   16.2740 O.2     6  GLY6       -0.2714
     32  N         22.3620   49.5870   17.2470 N.am    7  LYS7       -0.1977
     33  CA        21.9280   50.8430   16.7280 C.3     7  LYS7        0.1596
     34  C         22.0650   50.8580   15.2090 C.2     7  LYS7        0.2287
     35  O         21.1830   51.3200   14.4860 O.2     7  LYS7       -0.2864
     36  CB        22.7380   51.9650   17.3600 C.3     7  LYS7        0.0298
     37  CG        22.1300   53.2980   17.0310 C.3     7  LYS7        0.0038
     38  CD        22.8760   54.3840   17.7420 C.3     7  LYS7        0.0206
     39  CE        22.1710   55.6920   17.5300 C.3     7  LYS7        0.1093
     40  NZ        22.9100   56.8630   18.0980 N.3     7  LYS7       -0.1314
     41  N         21.9480   48.3560   13.2150 N.3     9  ILE9       -0.1231
     42  CA        20.9450   47.4840   12.6310 C.3     9  ILE9        0.1692
     43  C         19.6270   48.2270   12.5660 C.2     9  ILE9        0.2592
     44  O         18.9230   48.1970   11.5450 O.2     9  ILE9       -0.2718
     45  CB        20.7960   46.2230   13.4620 C.3     9  ILE9        0.0266
     46  CG1       22.0630   45.3630   13.3030 C.3     9  ILE9        0.0019
     47  CG2       19.5640   45.4530   13.0220 C.3     9  ILE9        0.0020
     48  CD1       22.0590   44.1280   14.1720 C.3     9  ILE9        0.0001
     49  N         19.2900   48.8980   13.6520 N.am   10  LEU10      -0.1966
     50  CA        18.0510   49.6430   13.6600 C.3    10  LEU10       0.1728
     51  C         18.1360   50.7270   12.5970 C.2    10  LEU10       0.2616
     52  O         17.2170   50.9360   11.7970 O.2    10  LEU10      -0.2715
     53  CB        17.8170   50.2160   15.0640 C.3    10  LEU10       0.0311
     54  CG        16.7310   51.2280   15.4470 C.3    10  LEU10       0.0022
     55  CD1       17.1600   52.6010   15.0470 C.3    10  LEU10       0.0001
     56  CD2       15.3790   50.8200   14.8290 C.3    10  LEU10       0.0001
     57  N         19.2530   51.4300   12.5470 N.am   11  GLN11      -0.1977
     58  CA        19.3820   52.4740   11.5690 C.3    11  GLN11       0.1601
     59  C         19.2630   52.0200   10.1350 C.2    11  GLN11       0.2287
     60  O         18.6490   52.6900    9.3120 O.2    11  GLN11      -0.2864
     61  CB        20.7220   53.1730   11.7390 C.3    11  GLN11       0.0394
     62  CG        20.7450   53.9890   12.9870 C.3    11  GLN11       0.0908
     63  CD        22.1210   54.4980   13.2750 C.2    11  GLN11       0.2608
     64  OE1       22.2970   55.6610   13.5990 O.2    11  GLN11      -0.2717
     65  NE2       23.1150   53.6270   13.1440 N.am   11  GLN11      -0.0878
     66  N         16.2820   45.5940   16.4950 N.3    17  PRO17      -0.2102
     67  CA        17.3270   44.5770   16.3540 C.3    17  PRO17       0.1504
     68  C         17.0380   43.2680   17.0420 C.2    17  PRO17       0.2575
     69  O         17.1670   42.2040   16.4400 O.2    17  PRO17      -0.2718
     70  CB        18.5520   45.2600   16.9430 C.3    17  PRO17       0.0282
     71  CG        18.2840   46.6930   16.7260 C.3    17  PRO17       0.0208
     72  CD        16.8310   46.8320   17.0700 C.3    17  PRO17       0.0893
     73  N         16.6710   43.3430   18.3120 N.am   18  ALA18      -0.1980
     74  CA        16.3850   42.1460   19.0630 C.3    18  ALA18       0.1597
     75  C         15.1940   41.4460   18.4590 C.2    18  ALA18       0.2287
     76  O         15.2050   40.2380   18.3200 O.2    18  ALA18      -0.2864
     77  CB        16.0950   42.4730   20.5310 C.3    18  ALA18       0.0319
     78  N         16.3740   40.3090   14.6730 N.3    21  TYR21      -0.1227
     79  CA        17.6400   39.6120   14.5460 C.3    21  TYR21       0.1736
     80  C         18.2160   39.0380   15.8030 C.2    21  TYR21       0.2596
     81  O         19.2930   38.4850   15.7680 O.2    21  TYR21      -0.2718
     82  CB        18.6570   40.5510   13.8930 C.3    21  TYR21       0.0548
     83  CG        18.1440   41.1340   12.5860 C.ar   21  TYR21      -0.0200
     84  CD1       17.6230   42.4310   12.5270 C.ar   21  TYR21      -0.0009
     85  CD2       18.0890   40.3550   11.4330 C.ar   21  TYR21      -0.0009
     86  CE1       17.0560   42.9330   11.3460 C.ar   21  TYR21       0.0417
     87  CE2       17.5160   40.8510   10.2490 C.ar   21  TYR21       0.0417
     88  CZ        17.0060   42.1340   10.2160 C.ar   21  TYR21       0.1957
     89  OH        16.4250   42.5960    9.0620 O.3    21  TYR21      -0.2866
     90  N         17.5160   39.1880   16.9230 N.am   22  GLY22      -0.1957
     91  CA        18.0270   38.6490   18.1790 C.3    22  GLY22       0.1869
     92  C         18.1370   37.1350   18.1390 C.2    22  GLY22       0.2309
     93  O         18.9640   36.5380   18.8120 O.2    22  GLY22      -0.2863
     94  N         22.5380   31.9790   12.7470 N.3    27  ASN27      -0.1225
     95  CA        23.6240   32.8820   13.0770 C.3    27  ASN27       0.1785
     96  C         23.2660   34.1980   13.6860 C.2    27  ASN27       0.2597
     97  O         24.1290   34.8460   14.2680 O.2    27  ASN27      -0.2718
     98  CB        24.4280   33.1520   11.8220 C.3    27  ASN27       0.1169
     99  CG        24.9460   31.8880   11.2070 C.2    27  ASN27       0.2627
    100  OD1       25.9870   31.3860   11.6040 O.2    27  ASN27      -0.2716
    101  ND2       24.2120   31.3530   10.2460 N.am   27  ASN27      -0.0877
    102  N         22.0250   34.6400   13.5150 N.am   28  CYS28      -0.1956
    103  CA        21.6720   35.9280   14.0790 C.3    28  CYS28       0.1843
    104  C         21.2590   35.7980   15.5290 C.2    28  CYS28       0.2626
    105  O         20.2620   35.1590   15.8360 O.2    28  CYS28      -0.2714
    106  CB        20.5250   36.5660   13.3140 C.3    28  CYS28       0.0997
    107  SG        20.8580   36.8820   11.5660 S.3    28  CYS28      -0.0797
    108  N         22.0350   36.4060   16.4160 N.am   29  GLY29      -0.1940
    109  CA        21.7040   36.3970   17.8280 C.3    29  GLY29       0.2014
    110  C         22.1340   35.1580   18.5590 C.2    29  GLY29       0.2639
    111  O         22.8140   35.2140   19.5930 O.2    29  GLY29      -0.2714
    112  N         21.7270   34.0270   18.0070 N.am   30  VAL30      -0.1963
    113  CA        22.0390   32.7340   18.5920 C.3    30  VAL30       0.1727
    114  C         23.5230   32.6550   18.9400 C.2    30  VAL30       0.2616
    115  O         24.3480   33.4150   18.4140 O.2    30  VAL30      -0.2715
    116  CB        21.6900   31.5940   17.6080 C.3    30  VAL30       0.0290
    117  CG1       20.2560   31.7650   17.0930 C.3    30  VAL30       0.0023
    118  CG2       22.6980   31.5830   16.4540 C.3    30  VAL30       0.0023
    119  N         23.8750   31.7450   19.8360 N.am   31  LEU31      -0.1977
    120  CA        25.2710   31.6030   20.1520 C.3    31  LEU31       0.1596
    121  C         25.8480   30.7680   18.9970 C.2    31  LEU31       0.2287
    122  O         25.2490   29.7840   18.5600 O.2    31  LEU31      -0.2864
    123  CB        25.4500   30.8730   21.4930 C.3    31  LEU31       0.0297
    124  CG        26.8220   30.9350   22.1750 C.3    31  LEU31       0.0022
    125  CD1       26.8340   29.9510   23.3590 C.3    31  LEU31       0.0001
    126  CD2       27.9260   30.5960   21.1890 C.3    31  LEU31       0.0001
    127  N         24.5790   37.3940    9.2770 N.3    44  CYS44      -0.1235
    128  CA        25.0340   37.1630   10.6380 C.3    44  CYS44       0.1677
    129  C         26.1870   36.2060   10.6710 C.2    44  CYS44       0.2270
    130  O         27.0670   36.3350   11.5160 O.2    44  CYS44      -0.2867
    131  CB        23.8870   36.6580   11.4980 C.3    44  CYS44       0.0956
    132  SG        22.5870   37.9310   11.5720 S.3    44  CYS44      -0.0801
    133  N         29.0190   38.1610    9.6430 N.3    47  HIS47      -0.1226
    134  CA        29.3160   39.0470   10.7440 C.3    47  HIS47       0.1752
    135  C         30.0870   38.3250   11.8100 C.2    47  HIS47       0.2595
    136  O         31.0660   38.8600   12.3540 O.2    47  HIS47      -0.2718
    137  CB        28.0380   39.5620   11.3600 C.3    47  HIS47       0.0759
    138  CG        28.2570   40.5830   12.4150 C.ar   47  HIS47       0.0818
    139  ND1       27.7540   40.4490   13.6880 N.ar   47  HIS47      -0.2268
    140  CD2       28.8200   41.8100   12.3600 C.ar   47  HIS47       0.1154
    141  CE1       27.9810   41.5550   14.3630 C.ar   47  HIS47       0.1986
    142  NE2       28.6220   42.3960   13.5790 N.ar   47  HIS47      -0.2212
    143  N         29.6570   37.1130   12.1320 N.am   48  LYS48      -0.1980
    144  CA        30.3810   36.3750   13.1620 C.3    48  LYS48       0.1596
    145  C         31.7880   36.0270   12.7200 C.2    48  LYS48       0.2287
    146  O         32.7370   36.0610   13.5110 O.2    48  LYS48      -0.2864
    147  CB        29.5970   35.1500   13.5710 C.3    48  LYS48       0.0298
    148  CG        28.6260   35.5450   14.6390 C.3    48  LYS48       0.0038
    149  CD        27.5170   34.5540   14.8530 C.3    48  LYS48       0.0206
    150  CE        26.6540   35.0870   16.0020 C.3    48  LYS48       0.1093
    151  NZ        25.5970   34.1290   16.3360 N.3    48  LYS48      -0.1314
    152  N         33.8580   38.9800   13.0440 N.3    51  TYR51      -0.1241
    153  CA        34.2600   39.1660   14.4180 C.3    51  TYR51       0.1605
    154  C         35.4550   38.2940   14.7160 C.2    51  TYR51       0.2264
    155  O         36.3770   38.7170   15.4170 O.2    51  TYR51      -0.2867
    156  CB        33.1180   38.8000   15.3570 C.3    51  TYR51       0.0534
    157  CG        32.1670   39.9330   15.6740 C.ar   51  TYR51      -0.0201
    158  CD1       32.2020   41.1360   14.9560 C.ar   51  TYR51      -0.0009
    159  CD2       31.2270   39.7950   16.6950 C.ar   51  TYR51      -0.0009
    160  CE1       31.3190   42.1690   15.2600 C.ar   51  TYR51       0.0417
    161  CE2       30.3540   40.8090   17.0020 C.ar   51  TYR51       0.0417
    162  CZ        30.4070   41.9860   16.2870 C.ar   51  TYR51       0.1957
    163  OH        29.5530   42.9610   16.6470 O.3    51  TYR51      -0.2866
    164  N         32.0260   42.3240   21.4640 N.3    60  LYS60      -0.1245
    165  CA        30.8030   42.4270   22.2290 C.3    60  LYS60       0.1561
    166  C         30.7900   43.5800   23.2000 C.2    60  LYS60       0.2260
    167  O         29.7640   44.2360   23.3850 O.2    60  LYS60      -0.2867
    168  CB        30.5530   41.1160   22.9740 C.3    60  LYS60       0.0271
    169  CG        30.7110   39.9390   22.0460 C.3    60  LYS60       0.0035
    170  CD        29.3180   39.8120   21.4380 C.3    60  LYS60       0.0206
    171  CE        29.1990   38.3410   21.0750 C.3    60  LYS60       0.1093
    172  NZ        29.8700   38.0330   19.7790 N.3    60  LYS60      -0.1314
    173  N         27.1250   44.0900    8.6590 N.3    92  VAL92      -0.1245
    174  CA        25.9890   43.2330    8.9370 C.3    92  VAL92       0.1561
    175  C         24.7250   44.0830    8.9470 C.2    92  VAL92       0.2260
    176  O         23.6960   43.6650    8.4580 O.2    92  VAL92      -0.2867
    177  CB        26.1340   42.4670   10.2620 C.3    92  VAL92       0.0252
    178  CG1       25.9640   43.3730   11.4550 C.3    92  VAL92       0.0019
    179  CG2       25.1010   41.3420   10.2830 C.3    92  VAL92       0.0019
    180  N         21.8090   43.1310    6.5850 N.3    96  LEU96      -0.1245
    181  CA        20.5120   42.7420    7.0680 C.3    96  LEU96       0.1561
    182  C         19.4720   43.5790    6.3370 C.2    96  LEU96       0.2260
    183  O         18.4390   43.0720    5.9120 O.2    96  LEU96      -0.2867
    184  CB        20.4140   42.9270    8.5810 C.3    96  LEU96       0.0270
    185  CG        21.4090   42.0200    9.3280 C.3    96  LEU96       0.0019
    186  CD1       21.3480   42.3100   10.8160 C.3    96  LEU96       0.0001
    187  CD2       21.0530   40.5680    9.0790 C.3    96  LEU96       0.0001
@<TRIPOS>BOND
     1   183   182    2
     2   182   181    1
     3   180   181    1
     4   181   184    1
     5   176   175    2
     6   184   185    1
     7   173   174    1
     8   174   175    1
     9   174   177    1
    10    89    88    1
    11   187   185    1
    12   127   128    1
    13    60    59    2
    14   185   186    1
    15   133   134    1
    16    59    58    1
    17    88    87   ar
    18    88    86   ar
    19   101    99   am
    20    87    85   ar
    21   177   179    1
    22   177   178    1
    23   128   129    1
    24   128   131    1
    25   129   130    2
    26   134   137    1
    27   134   135    1
    28    99   100    2
    29    99    98    1
    30    86    84   ar
    31   137   138    1
    32    85    83   ar
    33   131   132    1
    34    44    43    2
    35   107   132    1
    36   107   106    1
    37    58    61    1
    38    58    57    1
    39    61    62    1
    40    52    51    2
    41   135   143   am
    42   135   136    2
    43    98    95    1
    44   143   144    1
    45   140   138   ar
    46   140   142   ar
    47   138   139   ar
    48    84    83   ar
    49    57    51   am
    50    43    42    1
    51    43    49   am
    52    83    82    1
    53    51    50    1
    54    42    41    1
    55    42    45    1
    56   145   144    1
    57   145   146    2
    58    94    95    1
    59    62    63    1
    60    47    45    1
    61   152   153    1
    62    95    96    1
    63    65    63   am
    64   144   147    1
    65    63    64    2
    66    46    45    1
    67    46    48    1
    68   106   103    1
    69   102    96   am
    70   102   103    1
    71   147   148    1
    72   142   141   ar
    73    49    50    1
    74    50    53    1
    75    96    97    2
    76   139   141   ar
    77    82    79    1
    78   103   104    1
    79   153   154    1
    80   153   156    1
    81    26    25    1
    82    35    34    2
    83    79    78    1
    84    79    80    1
    85   148   149    1
    86   154   155    2
    87    56    54    1
    88   149   150    1
    89   158   160   ar
    90   158   157   ar
    91    55    54    1
    92    53    54    1
    93    34    33    1
    94   160   162   ar
    95    23    22    2
    96   156   157    1
    97   104   105    2
    98   104   108   am
    99   157   159   ar
   100    81    80    2
   101    80    90   am
   102    25    27    1
   103    25    24    1
   104   150   151    1
   105    31    30    2
   106   162   163    1
   107   162   161   ar
   108    67    66    1
   109    67    70    1
   110    67    68    1
   111    22    21    1
   112    22    28   am
   113   108   109    1
   114    21    24    1
   115    21    20    1
   116    69    68    2
   117   118   116    1
   118    66    72    1
   119   159   161   ar
   120    71    70    1
   121    71    72    1
   122    33    32    1
   123    33    36    1
   124    90    91    1
   125    30    32   am
   126    30    29    1
   127    37    36    1
   128    37    38    1
   129    68    73   am
   130   117   116    1
   131    39    38    1
   132    39    40    1
   133    28    29    1
   134   116   113    1
   135   109   110    1
   136   112   110   am
   137   112   113    1
   138    92    91    1
   139    92    93    2
   140    73    74    1
   141    76    75    2
   142   115   114    2
   143    75    74    1
   144   110   111    2
   145   122   121    2
   146   113   114    1
   147   114   119   am
   148   121   120    1
   149    74    77    1
   150    12    11    2
   151   172   171    1
   152   119   120    1
   153     4     3    2
   154     7     6    1
   155   120   123    1
   156    11    10    1
   157     3     2    1
   158     3     9   am
   159     2     1    1
   160     2     5    1
   161   171   170    1
   162   126   124    1
   163   170   169    1
   164   164   165    1
   165   123   124    1
   166     6     5    1
   167     6     8    1
   168     9    10    1
   169    10    13    1
   170   169   168    1
   171   124   125    1
   172   165   168    1
   173   165   166    1
   174    13    14    1
   175   166   167    2
   176    14    15   ar
   177    14    16   ar
   178    15    17   ar
   179    16    18   ar
   180    17    19   ar
   181    18    19   ar
