@<TRIPOS>MOLECULE
tmp/3cxmA01.pdb
 89 88 0 0 0
SMALL
GASTEIGER

@<TRIPOS>ATOM
      1  N        -27.0890   17.1330   17.2960 N.3    75  GLY75      -0.1210
      2  CA       -27.3040   16.3420   18.5010 C.3    75  GLY75       0.1956
      3  C        -28.5240   15.4550   18.3010 C.2    75  GLY75       0.2612
      4  O        -29.1410   15.4070   17.2300 O.2    75  GLY75      -0.2717
      5  N        -28.8630   14.6910   19.3130 N.am   76  GLN76      -0.1965
      6  CA       -29.9660   13.7460   19.3020 C.3    76  GLN76       0.1733
      7  C        -31.2320   14.4130   19.9040 C.2    76  GLN76       0.2616
      8  O        -32.0590   14.8970   19.1790 O.2    76  GLN76      -0.2715
      9  CB       -29.5570   12.4450   20.0340 C.3    76  GLN76       0.0408
     10  CG       -30.5060   11.2300   19.8680 C.3    76  GLN76       0.0908
     11  CD       -29.8550    9.8310   20.2880 C.2    76  GLN76       0.2608
     12  OE1      -28.6410    9.6840   20.2820 O.2    76  GLN76      -0.2717
     13  NE2      -30.6870    8.8300   20.6040 N.am   76  GLN76      -0.0878
     14  N        -31.3990   14.4030   21.2060 N.am   77  ASP77      -0.1958
     15  CA       -32.4900   15.1120   21.8310 C.3    77  ASP77       0.1825
     16  C        -31.9610   15.8740   23.0450 C.2    77  ASP77       0.2464
     17  O        -30.7830   15.7440   23.4140 O.2    77  ASP77      -0.2730
     18  CB       -33.6900   14.2130   22.1830 C.3    77  ASP77       0.1450
     19  CG       -33.4390   13.2770   23.3790 C.2    77  ASP77       0.3671
     20  OD1      -32.2460   13.0040   23.6830 O.co2  77  ASP77      -0.2456
     21  OD2      -34.4380   12.8120   23.9780 O.co2  77  ASP77      -0.2456
     22  N        -32.7830   16.7960   23.5870 N.am   78  PRO78      -0.2715
     23  CA       -32.3030   17.6300   24.6400 C.3    78  PRO78       0.1536
     24  C        -32.0230   16.9020   25.9610 C.2    78  PRO78       0.2598
     25  O        -32.6340   15.9020   26.2770 O.2    78  PRO78      -0.2715
     26  CB       -33.4360   18.5880   24.8760 C.3    78  PRO78       0.0310
     27  CG       -34.3130   18.5180   23.6640 C.3    78  PRO78       0.0237
     28  CD       -34.1670   17.1010   23.2550 C.3    78  PRO78       0.0939
     29  N        -31.1010   17.4370   26.7250 N.am   79  TYR79      -0.1974
     30  CA       -30.9430   17.0060   28.0860 C.3    79  TYR79       0.1639
     31  C        -32.2620   17.0700   28.8100 C.2    79  TYR79       0.2290
     32  O        -33.0650   17.9470   28.5130 O.2    79  TYR79      -0.2864
     33  CB       -29.9050   17.8340   28.8040 C.3    79  TYR79       0.0560
     34  CG       -28.5340   17.7680   28.2880 C.ar   79  TYR79      -0.0198
     35  CD1      -27.7880   16.5970   28.3230 C.ar   79  TYR79      -0.0009
     36  CD2      -27.9450   18.9220   27.8150 C.ar   79  TYR79      -0.0009
     37  CE1      -26.4620   16.5900   27.9000 C.ar   79  TYR79       0.0417
     38  CE2      -26.6700   18.9340   27.4270 C.ar   79  TYR79       0.0417
     39  CZ       -25.8920   17.7790   27.4420 C.ar   79  TYR79       0.1957
     40  OH       -24.5610   17.8420   27.0600 O.3    79  TYR79      -0.2866
     41  N        -29.8460   24.3720   22.7330 N.3    88  LEU88      -0.1231
     42  CA       -28.6810   24.0910   21.9460 C.3    88  LEU88       0.1693
     43  C        -28.2070   22.7080   22.2230 C.2    88  LEU88       0.2592
     44  O        -28.0720   22.3450   23.3880 O.2    88  LEU88      -0.2718
     45  CB       -27.5030   25.0110   22.3710 C.3    88  LEU88       0.0284
     46  CG       -27.7580   26.4890   22.3500 C.3    88  LEU88       0.0019
     47  CD1      -26.4950   27.3500   22.7860 C.3    88  LEU88       0.0001
     48  CD2      -28.2480   26.9750   20.9540 C.3    88  LEU88       0.0001
     49  N        -27.8250   21.9550   21.2090 N.am   89  CYS89      -0.1956
     50  CA       -27.2630   20.6560   21.4600 C.3    89  CYS89       0.1843
     51  C        -26.0170   20.8000   22.3260 C.2    89  CYS89       0.2625
     52  O        -25.2160   21.7320   22.1420 O.2    89  CYS89      -0.2714
     53  CB       -27.0410   19.8700   20.1390 C.3    89  CYS89       0.0997
     54  SG       -25.7770   20.6090   19.1240 S.3    89  CYS89      -0.0797
     55  N        -25.8570   19.8290   23.2350 N.am   90  PHE90      -0.1974
     56  CA       -24.7430   19.6550   24.1590 C.3    90  PHE90       0.1639
     57  C        -24.5750   20.6870   25.2920 C.2    90  PHE90       0.2290
     58  O        -23.8750   20.4320   26.2540 O.2    90  PHE90      -0.2864
     59  CB       -23.4010   19.4760   23.4190 C.3    90  PHE90       0.0560
     60  CG       -23.3440   18.2360   22.5660 C.ar   90  PHE90      -0.0200
     61  CD1      -23.0760   16.9980   23.1480 C.ar   90  PHE90      -0.0042
     62  CD2      -23.6050   18.3000   21.2190 C.ar   90  PHE90      -0.0042
     63  CE1      -23.0450   15.8140   22.3430 C.ar   90  PHE90      -0.0003
     64  CE2      -23.6170   17.1130   20.4210 C.ar   90  PHE90      -0.0003
     65  CZ       -23.3300   15.8750   21.0290 C.ar   90  PHE90      -0.0000
     66  N        -20.7840   13.7320   28.2760 N.3   101  SER101     -0.1217
     67  CA       -20.3880   14.0420   26.9140 C.3   101  SER101      0.1889
     68  C        -19.6910   15.3890   26.8510 C.2   101  SER101      0.2288
     69  O        -18.6630   15.5230   26.1570 O.2   101  SER101     -0.2866
     70  CB       -21.5880   14.0210   25.9570 C.3   101  SER101      0.2089
     71  OG       -21.9640   12.6720   25.6580 O.3   101  SER101     -0.2183
     72  N        -30.3740   19.9110   17.7380 N.3   136  ASN136     -0.1240
     73  CA       -30.7950   18.5560   18.0680 C.3   136  ASN136      0.1653
     74  C        -31.7760   18.0480   17.0180 C.2   136  ASN136      0.2266
     75  O        -32.5170   18.8420   16.4700 O.2   136  ASN136     -0.2867
     76  CB       -31.4720   18.4550   19.4520 C.3   136  ASN136      0.1155
     77  CG       -30.4730   18.4290   20.5960 C.2   136  ASN136      0.2627
     78  OD1      -29.4720   17.7090   20.4820 O.2   136  ASN136     -0.2716
     79  ND2      -30.7530   19.1850   21.6540 N.am  136  ASN136     -0.0877
     80  N        -18.6870    9.4850   18.6760 N.3   202  HIS202     -0.1241
     81  CA       -19.4060   10.3670   19.6070 C.3   202  HIS202      0.1621
     82  C        -18.6190   10.5290   20.9330 C.2   202  HIS202      0.2264
     83  O        -17.9580    9.5940   21.3930 O.2   202  HIS202     -0.2867
     84  CB       -20.7730    9.7380   19.8650 C.3   202  HIS202      0.0745
     85  CG       -21.7430   10.6270   20.5860 C.ar  202  HIS202      0.0817
     86  ND1      -21.7540   10.7630   21.9590 N.ar  202  HIS202     -0.2268
     87  CD2      -22.7710   11.3770   20.1300 C.ar  202  HIS202      0.1154
     88  CE1      -22.7400   11.5670   22.3130 C.ar  202  HIS202      0.1986
     89  NE2      -23.3710   11.9570   21.2260 N.ar  202  HIS202     -0.2212
@<TRIPOS>BOND
     1    75    74    2
     2    74    73    1
     3     4     3    2
     4     1     2    1
     5    72    73    1
     6    73    76    1
     7     3     2    1
     8     3     5   am
     9    80    81    1
    10    54    53    1
    11     8     7    2
    12     6     5    1
    13     6     7    1
    14     6     9    1
    15    76    77    1
    16    81    84    1
    17    81    82    1
    18    84    85    1
    19    10     9    1
    20    10    11    1
    21     7    14   am
    22    87    85   ar
    23    87    89   ar
    24    53    50    1
    25    12    11    2
    26    11    13   am
    27    64    65   ar
    28    64    62   ar
    29    78    77    2
    30    85    86   ar
    31    77    79   am
    32    82    83    2
    33    48    46    1
    34    65    63   ar
    35    14    15    1
    36    49    50    1
    37    49    43   am
    38    62    60   ar
    39    89    88   ar
    40    50    51    1
    41    15    18    1
    42    15    16    1
    43    42    43    1
    44    42    45    1
    45    42    41    1
    46    86    88   ar
    47    52    51    2
    48    18    19    1
    49    43    44    2
    50    51    55   am
    51    63    61   ar
    52    46    45    1
    53    46    47    1
    54    60    61   ar
    55    60    59    1
    56    16    17    2
    57    16    22   am
    58    55    56    1
    59    28    22    1
    60    28    27    1
    61    19    20   ar
    62    19    21   ar
    63    59    56    1
    64    22    23    1
    65    27    26    1
    66    56    57    1
    67    23    26    1
    68    23    24    1
    69    57    58    2
    70    71    70    1
    71    70    67    1
    72    24    25    2
    73    24    29   am
    74    69    68    2
    75    29    30    1
    76    68    67    1
    77    67    66    1
    78    40    39    1
    79    38    39   ar
    80    38    36   ar
    81    39    37   ar
    82    36    34   ar
    83    37    35   ar
    84    30    33    1
    85    30    31    1
    86    34    35   ar
    87    34    33    1
    88    32    31    2
