@<TRIPOS>MOLECULE
tmp/3cxoA00.pdb
 141 134 0 0 0
SMALL
GASTEIGER

@<TRIPOS>ATOM
      1  N         24.7690   30.2550   84.9000 N.3    30  HIS30      -0.1241
      2  CA        25.8320   29.5250   85.5780 C.3    30  HIS30       0.1621
      3  C         27.1900   30.2130   85.6190 C.2    30  HIS30       0.2264
      4  O         28.1560   29.6440   86.1320 O.2    30  HIS30      -0.2867
      5  CB        25.9830   28.1400   84.9500 C.3    30  HIS30       0.0745
      6  CG        24.6930   27.3940   84.8310 C.ar   30  HIS30       0.0817
      7  ND1       24.0400   27.2200   83.6280 N.ar   30  HIS30      -0.2268
      8  CD2       23.9200   26.7960   85.7680 C.ar   30  HIS30       0.1154
      9  CE1       22.9230   26.5460   83.8310 C.ar   30  HIS30       0.1986
     10  NE2       22.8260   26.2770   85.1200 N.ar   30  HIS30      -0.2212
     11  N         25.1090   28.1870   95.4900 N.3    37  TRP37      -0.1227
     12  CA        24.3060   26.9670   95.5530 C.3    37  TRP37       0.1737
     13  C         24.1840   26.3120   94.1800 C.2    37  TRP37       0.2595
     14  O         24.1140   25.0890   94.0760 O.2    37  TRP37      -0.2718
     15  CB        22.8900   27.2530   96.0780 C.3    37  TRP37       0.0564
     16  CG        22.0200   27.9320   95.0610 C.ar   37  TRP37       0.0003
     17  CD1       21.9120   29.2720   94.8370 C.ar   37  TRP37       0.0946
     18  CD2       21.2160   27.2930   94.0600 C.ar   37  TRP37       0.0152
     19  NE1       21.0980   29.5110   93.7560 N.ar   37  TRP37      -0.2442
     20  CE2       20.6550   28.3140   93.2600 C.ar   37  TRP37       0.0810
     21  CE3       20.9180   25.9550   93.7610 C.ar   37  TRP37       0.0012
     22  CZ2       19.8100   28.0400   92.1750 C.ar   37  TRP37       0.0191
     23  CZ3       20.0790   25.6810   92.6800 C.ar   37  TRP37       0.0001
     24  CH2       19.5340   26.7210   91.9020 C.ar   37  TRP37       0.0015
     25  N         24.1690   27.1270   93.1290 N.am   38  ILE38      -0.1980
     26  CA        24.0010   26.6110   91.7730 C.3    38  ILE38       0.1595
     27  C         25.1940   25.8100   91.2460 C.2    38  ILE38       0.2287
     28  O         25.1560   25.2820   90.1360 O.2    38  ILE38      -0.2864
     29  CB        23.6510   27.7570   90.7880 C.3    38  ILE38       0.0276
     30  CG1       22.8130   27.2060   89.6340 C.3    38  ILE38       0.0022
     31  CG2       24.9240   28.4260   90.2740 C.3    38  ILE38       0.0022
     32  CD1       22.1760   28.2830   88.7690 C.3    38  ILE38       0.0001
     33  N         25.9980   19.6070   92.2300 N.3    42  ILE42      -0.1245
     34  CA        24.7720   19.3670   91.4610 C.3    42  ILE42       0.1561
     35  C         24.9810   18.1480   90.5620 C.2    42  ILE42       0.2260
     36  O         26.0020   18.0500   89.8780 O.2    42  ILE42      -0.2867
     37  CB        24.4350   20.5750   90.5530 C.3    42  ILE42       0.0252
     38  CG1       24.2970   21.8520   91.3910 C.3    42  ILE42       0.0019
     39  CG2       23.1610   20.2930   89.7700 C.3    42  ILE42       0.0019
     40  CD1       23.1250   21.8520   92.3420 C.3    42  ILE42       0.0001
     41  N         30.1330   22.1250   88.6930 N.3    56  ARG56      -0.1245
     42  CA        29.7740   22.0840   87.2840 C.3    56  ARG56       0.1563
     43  C         30.7080   23.0460   86.5560 C.2    56  ARG56       0.2260
     44  O         31.0360   22.8550   85.3860 O.2    56  ARG56      -0.2867
     45  CB        28.3120   22.4960   87.0730 C.3    56  ARG56       0.0307
     46  CG        27.3220   21.4790   87.6110 C.3    56  ARG56       0.0489
     47  CD        25.9330   21.7170   87.0450 C.3    56  ARG56       0.2205
     48  NE        25.2710   22.8770   87.6250 N.pl3  56  ARG56      -0.0865
     49  CZ        24.0020   23.1910   87.3910 C.cat  56  ARG56       0.5346
     50  NH1       23.2680   22.4350   86.5760 N.pl3  56  ARG56       0.1354
     51  NH2       23.4550   24.2340   87.9920 N.pl3  56  ARG56       0.1354
     52  N         13.5200   28.3500   92.2720 N.3   170  THR170     -0.1218
     53  CA        14.4710   27.2620   92.0870 C.3   170  THR170      0.1862
     54  C         15.7290   27.6000   92.8690 C.2   170  THR170      0.2287
     55  O         16.3290   28.6620   92.6730 O.2   170  THR170     -0.2866
     56  CB        14.7980   27.0780   90.6020 C.3   170  THR170      0.1770
     57  OG1       13.5940   26.7560   89.9030 O.3   170  THR170     -0.2211
     58  CG2       15.8170   25.9510   90.4000 C.3   170  THR170      0.0375
     59  N         11.7920   24.4190   93.8600 N.3   186  LYS186     -0.1245
     60  CA        12.4050   23.3380   93.1070 C.3   186  LYS186      0.1561
     61  C         13.8650   23.2260   93.4900 C.2   186  LYS186      0.2260
     62  O         14.6270   24.1840   93.3690 O.2   186  LYS186     -0.2867
     63  CB        12.2900   23.5860   91.6030 C.3   186  LYS186      0.0271
     64  CG        12.9490   22.4940   90.7570 C.3   186  LYS186      0.0035
     65  CD        12.6370   22.6530   89.2660 C.3   186  LYS186      0.0206
     66  CE        13.3650   23.8460   88.6480 C.3   186  LYS186      0.1093
     67  NZ        12.9340   24.0500   87.2430 N.3   186  LYS186     -0.1314
     68  N         17.6670   21.0520   93.2850 N.3   188  PRO188     -0.2116
     69  CA        18.4640   20.2520   92.3590 C.3   188  PRO188      0.1372
     70  C         18.8640   18.9590   93.0520 C.2   188  PRO188      0.2244
     71  O         19.0300   18.9330   94.2740 O.2   188  PRO188     -0.2868
     72  CB        19.6740   21.1470   92.0870 C.3   188  PRO188      0.0268
     73  CG        19.8790   21.8190   93.3940 C.3   188  PRO188      0.0207
     74  CD        18.4590   22.1700   93.8310 C.3   188  PRO188      0.0892
     75  N         14.8920   19.0320   90.3190 N.3   223  ASP223     -0.1239
     76  CA        15.4850   19.2900   89.0100 C.3   223  ASP223      0.1674
     77  C         16.6590   18.3040   88.9090 C.2   223  ASP223      0.2266
     78  O         17.5200   18.2730   89.7920 O.2   223  ASP223     -0.2867
     79  CB        15.9870   20.7280   88.9190 C.3   223  ASP223      0.1410
     80  CG        16.4220   21.0900   87.5220 C.2   223  ASP223      0.3668
     81  OD1       17.4310   20.5200   87.0450 O.co2 223  ASP223     -0.2456
     82  OD2       15.7500   21.9330   86.8960 O.co2 223  ASP223     -0.2456
     83  N         18.6810   17.9040   85.9960 N.3   225  TRP225     -0.1241
     84  CA        19.6130   18.3520   84.9630 C.3   225  TRP225      0.1605
     85  C         20.2820   17.2750   84.0890 C.2   225  TRP225      0.2264
     86  O         21.5060   17.1240   84.1230 O.2   225  TRP225     -0.2867
     87  CB        20.7050   19.2180   85.6100 C.3   225  TRP225      0.0550
     88  CG        21.2100   20.3450   84.7470 C.ar  225  TRP225      0.0003
     89  CD1       20.5450   21.5000   84.4360 C.ar  225  TRP225      0.0946
     90  CD2       22.4860   20.4300   84.0980 C.ar  225  TRP225      0.0152
     91  NE1       21.3280   22.2990   83.6350 N.ar  225  TRP225     -0.2442
     92  CE2       22.5250   21.6680   83.4120 C.ar  225  TRP225      0.0810
     93  CE3       23.6020   19.5820   84.0300 C.ar  225  TRP225      0.0012
     94  CZ2       23.6370   22.0810   82.6680 C.ar  225  TRP225      0.0191
     95  CZ3       24.7080   19.9890   83.2910 C.ar  225  TRP225      0.0001
     96  CH2       24.7170   21.2300   82.6190 C.ar  225  TRP225      0.0015
     97  N         12.0170   16.8610   87.1610 N.3   249  GLU249     -0.1245
     98  CA        12.4370   17.5160   85.9280 C.3   249  GLU249      0.1567
     99  C         13.7390   17.1290   85.2330 C.2   249  GLU249      0.2260
    100  O         14.7620   16.9020   85.8690 O.2   249  GLU249     -0.2867
    101  CB        12.4590   19.0270   86.1930 C.3   249  GLU249      0.0388
    102  CG        13.0160   19.8970   85.0690 C.3   249  GLU249      0.1160
    103  CD        12.8810   21.3720   85.3970 C.2   249  GLU249      0.3649
    104  OE1       11.9550   21.7120   86.1620 O.co2 249  GLU249     -0.2457
    105  OE2       13.6790   22.1870   84.8920 O.co2 249  GLU249     -0.2457
    106  N         13.9780   22.4990   78.7420 N.3   277  GLU277     -0.1245
    107  CA        14.8370   23.6760   78.7700 C.3   277  GLU277      0.1567
    108  C         16.0100   23.5930   77.8000 C.2   277  GLU277      0.2260
    109  O         16.5170   24.6240   77.3460 O.2   277  GLU277     -0.2867
    110  CB        15.3380   23.9510   80.1850 C.3   277  GLU277      0.0388
    111  CG        16.3580   22.9760   80.7160 C.3   277  GLU277      0.1160
    112  CD        16.5890   23.1860   82.1960 C.2   277  GLU277      0.3649
    113  OE1       15.6190   23.0000   82.9620 O.co2 277  GLU277     -0.2457
    114  OE2       17.7200   23.5460   82.5880 O.co2 277  GLU277     -0.2457
    115  N         11.6950   28.0730   81.2970 N.3   326  HIS326     -0.1241
    116  CA        12.8440   28.0280   82.1920 C.3   326  HIS326      0.1621
    117  C         13.3890   29.4510   82.3730 C.2   326  HIS326      0.2264
    118  O         13.8050   30.0800   81.3980 O.2   326  HIS326     -0.2867
    119  CB        13.9100   27.1180   81.5730 C.3   326  HIS326      0.0745
    120  CG        15.2730   27.2730   82.1690 C.ar  326  HIS326      0.0817
    121  ND1       16.0770   28.3640   81.9200 N.ar  326  HIS326     -0.2268
    122  CD2       15.9910   26.4550   82.9730 C.ar  326  HIS326      0.1154
    123  CE1       17.2330   28.2090   82.5420 C.ar  326  HIS326      0.1986
    124  NE2       17.2070   27.0580   83.1890 N.ar  326  HIS326     -0.2212
    125  N          8.7050   30.3790   86.6950 N.3   346  GLU346     -0.1245
    126  CA         9.9100   30.1020   87.4650 C.3   346  GLU346      0.1567
    127  C         10.8120   31.3020   87.6970 C.2   346  GLU346      0.2260
    128  O         10.9540   32.1740   86.8340 O.2   346  GLU346     -0.2867
    129  CB        10.7480   29.0120   86.7730 C.3   346  GLU346      0.0388
    130  CG        12.1400   28.8360   87.4010 C.3   346  GLU346      0.1160
    131  CD        13.0070   27.8150   86.6830 C.2   346  GLU346      0.3649
    132  OE1       13.0100   27.7950   85.4350 O.co2 346  GLU346     -0.2457
    133  OE2       13.6980   27.0370   87.3760 O.co2 346  GLU346     -0.2457
    134  N         14.6620   31.5660   88.9770 N.3   348  LEU348     -0.1245
    135  CA        15.8690   30.8150   89.3190 C.3   348  LEU348      0.1561
    136  C         16.7670   31.6930   90.1790 C.2   348  LEU348      0.2260
    137  O         17.2860   32.7050   89.7140 O.2   348  LEU348     -0.2867
    138  CB        16.5970   30.3840   88.0380 C.3   348  LEU348      0.0270
    139  CG        17.9540   29.6760   88.1150 C.3   348  LEU348      0.0019
    140  CD1       17.8670   28.4060   88.9550 C.3   348  LEU348      0.0001
    141  CD2       18.4020   29.3410   86.6940 C.3   348  LEU348      0.0001
@<TRIPOS>BOND
     1   109   108    2
     2   108   107    1
     3   106   107    1
     4   107   110    1
     5   110   111    1
     6   111   112    1
     7   115   116    1
     8   118   117    2
     9   119   120    1
    10   119   116    1
    11   121   120   ar
    12   121   123   ar
    13   120   122   ar
    14   116   117    1
    15   112   114   ar
    16   112   113   ar
    17   123   124   ar
    18    96    94   ar
    19    96    95   ar
    20    94    92   ar
    21   122   124   ar
    22    95    93   ar
    23    92    91   ar
    24    92    90   ar
    25     7     9   ar
    26     7     6   ar
    27    91    89   ar
    28     9    10   ar
    29    93    90   ar
    30    85    86    2
    31    85    84    1
    32    90    88   ar
    33    89    88   ar
    34    88    87    1
    35     6     5    1
    36     6     8   ar
    37   105   103   ar
    38     1     2    1
    39     5     2    1
    40    84    87    1
    41    84    83    1
    42   102   103    1
    43   102   101    1
    44    10     8   ar
    45    99   100    2
    46    99    98    1
    47    44    43    2
    48   103   104   ar
    49   132   131   ar
    50     2     3    1
    51     3     4    2
    52    98   101    1
    53    98    97    1
    54    43    42    1
    55    50    49    1
    56   131   133   ar
    57   131   130    1
    58   141   139    1
    59   125   126    1
    60   129   130    1
    61   129   126    1
    62   128   127    2
    63    82    80   ar
    64    81    80   ar
    65    47    46    1
    66    47    48    1
    67    45    42    1
    68    45    46    1
    69    67    66    1
    70    42    41    1
    71    49    48    2
    72    49    51    1
    73   126   127    1
    74    80    79    1
    75   138   139    1
    76   138   135    1
    77   139   140    1
    78    66    65    1
    79    32    30    1
    80    77    76    1
    81    77    78    2
    82    79    76    1
    83   134   135    1
    84    76    75    1
    85    65    64    1
    86   135   136    1
    87    30    29    1
    88   137   136    2
    89    39    37    1
    90    36    35    2
    91    57    56    1
    92    28    27    2
    93    31    29    1
    94    58    56    1
    95    37    38    1
    96    37    34    1
    97    35    34    1
    98    56    53    1
    99    64    63    1
   100    29    26    1
   101    27    26    1
   102    38    40    1
   103    34    33    1
   104    63    60    1
   105    26    25    1
   106    24    22   ar
   107    24    23   ar
   108    53    52    1
   109    53    54    1
   110    72    69    1
   111    72    73    1
   112    22    20   ar
   113    69    70    1
   114    69    68    1
   115    55    54    2
   116    23    21   ar
   117    70    71    2
   118    60    61    1
   119    60    59    1
   120    25    13   am
   121    20    19   ar
   122    20    18   ar
   123    68    74    1
   124    62    61    2
   125    73    74    1
   126    19    17   ar
   127    21    18   ar
   128    18    16   ar
   129    14    13    2
   130    13    12    1
   131    17    16   ar
   132    16    15    1
   133    11    12    1
   134    12    15    1
