@<TRIPOS>MOLECULE
tmp/3cxoB00.pdb
 159 153 0 0 0
SMALL
GASTEIGER

@<TRIPOS>ATOM
      1  N         31.5950   23.0510   51.3430 N.3    30  HIS30      -0.1241
      2  CA        30.9300   24.1550   50.6640 C.3    30  HIS30       0.1621
      3  C         31.6880   25.4730   50.6240 C.2    30  HIS30       0.2264
      4  O         31.1680   26.4680   50.1190 O.2    30  HIS30      -0.2867
      5  CB        29.5520   24.3860   51.2850 C.3    30  HIS30       0.0745
      6  CG        28.7330   23.1400   51.4050 C.ar   30  HIS30       0.0817
      7  ND1       28.5290   22.4960   52.6070 N.ar   30  HIS30      -0.2268
      8  CD2       28.0890   22.4030   50.4690 C.ar   30  HIS30       0.1154
      9  CE1       27.7950   21.4160   52.4070 C.ar   30  HIS30       0.1986
     10  NE2       27.5160   21.3360   51.1180 N.ar   30  HIS30      -0.2212
     11  N         29.5600   23.5130   40.7620 N.3    37  TRP37      -0.1227
     12  CA        28.3010   22.7780   40.6910 C.3    37  TRP37       0.1737
     13  C         27.6330   22.6880   42.0610 C.2    37  TRP37       0.2595
     14  O         26.4080   22.6940   42.1610 O.2    37  TRP37      -0.2718
     15  CB        28.5190   21.3530   40.1680 C.3    37  TRP37       0.0564
     16  CG        29.1430   20.4460   41.1890 C.ar   37  TRP37       0.0003
     17  CD1       30.4750   20.2680   41.4220 C.ar   37  TRP37       0.0946
     18  CD2       28.4550   19.6700   42.1820 C.ar   37  TRP37       0.0152
     19  NE1       30.6620   19.4340   42.4990 N.ar   37  TRP37      -0.2442
     20  CE2       29.4390   19.0530   42.9850 C.ar   37  TRP37       0.0810
     21  CE3       27.1020   19.4410   42.4730 C.ar   37  TRP37       0.0012
     22  CZ2       29.1130   18.2190   44.0650 C.ar   37  TRP37       0.0191
     23  CZ3       26.7780   18.6120   43.5490 C.ar   37  TRP37       0.0001
     24  CH2       27.7820   18.0130   44.3300 C.ar   37  TRP37       0.0015
     25  N         28.4450   22.6110   43.1110 N.am   38  ILE38      -0.1980
     26  CA        27.9210   22.4760   44.4640 C.3    38  ILE38       0.1595
     27  C         27.1880   23.7140   44.9860 C.2    38  ILE38       0.2287
     28  O         26.6600   23.7040   46.0980 O.2    38  ILE38      -0.2864
     29  CB        29.0480   22.0660   45.4490 C.3    38  ILE38       0.0276
     30  CG1       28.4520   21.2630   46.6100 C.3    38  ILE38       0.0022
     31  CG2       29.7810   23.3010   45.9660 C.3    38  ILE38       0.0022
     32  CD1       29.4880   20.5860   47.4860 C.3    38  ILE38       0.0001
     33  N         21.0420   24.8810   43.9910 N.3    42  ILE42      -0.1231
     34  CA        20.7330   23.6760   44.7620 C.3    42  ILE42       0.1692
     35  C         19.5270   23.9590   45.6610 C.2    42  ILE42       0.2591
     36  O         19.4990   24.9770   46.3490 O.2    42  ILE42      -0.2718
     37  CB        21.9170   23.2700   45.6720 C.3    42  ILE42       0.0266
     38  CG1       23.1850   23.0500   44.8400 C.3    42  ILE42       0.0019
     39  CG2       21.5600   22.0060   46.4500 C.3    42  ILE42       0.0020
     40  CD1       23.1160   21.8650   43.8970 C.3    42  ILE42       0.0001
     41  N         18.5370   23.0680   45.6540 N.am   43  ALA43      -0.1980
     42  CA        17.3450   23.2480   46.4880 C.3    43  ALA43       0.1597
     43  C         17.7190   23.1440   47.9680 C.2    43  ALA43       0.2287
     44  O         18.4490   22.2380   48.3660 O.2    43  ALA43      -0.2864
     45  CB        16.2890   22.1960   46.1390 C.3    43  ALA43       0.0319
     46  N         23.7880   28.8780   47.5320 N.3    56  ARG56      -0.1245
     47  CA        23.7200   28.5140   48.9380 C.3    56  ARG56       0.1563
     48  C         24.7180   29.3950   49.6670 C.2    56  ARG56       0.2260
     49  O         24.5280   29.7490   50.8300 O.2    56  ARG56      -0.2867
     50  CB        24.0590   27.0360   49.1420 C.3    56  ARG56       0.0307
     51  CG        22.9870   26.1010   48.6170 C.3    56  ARG56       0.0489
     52  CD        23.1340   24.7040   49.1800 C.3    56  ARG56       0.2205
     53  NE        24.2550   23.9740   48.6000 N.pl3  56  ARG56      -0.0865
     54  CZ        24.5100   22.6950   48.8490 C.cat  56  ARG56       0.5346
     55  NH1       23.7250   22.0090   49.6720 N.pl3  56  ARG56       0.1354
     56  NH2       25.5320   22.0940   48.2570 N.pl3  56  ARG56       0.1354
     57  N         29.0600   11.9210   43.9680 N.3   170  THR170     -0.1218
     58  CA        28.0350   12.9330   44.1590 C.3   170  THR170      0.1862
     59  C         28.4380   14.1750   43.3810 C.2   170  THR170      0.2287
     60  O         29.5110   14.7380   43.6040 O.2   170  THR170     -0.2866
     61  CB        27.8720   13.2800   45.6520 C.3   170  THR170      0.1770
     62  OG1       27.4760   12.1000   46.3640 O.3   170  THR170     -0.2211
     63  CG2       26.8120   14.3550   45.8430 C.3   170  THR170      0.0375
     64  N         25.0530   10.4160   42.3840 N.3   186  LYS186     -0.1245
     65  CA        24.0050   11.0950   43.1300 C.3   186  LYS186      0.1561
     66  C         23.9620   12.5620   42.7410 C.2   186  LYS186      0.2260
     67  O         24.9550   13.2820   42.8510 O.2   186  LYS186     -0.2867
     68  CB        24.2410   10.9680   44.6370 C.3   186  LYS186      0.0271
     69  CG        23.1820   11.6840   45.4770 C.3   186  LYS186      0.0035
     70  CD        23.3250   11.3750   46.9640 C.3   186  LYS186      0.0206
     71  CE        24.5430   12.0420   47.5780 C.3   186  LYS186      0.1093
     72  NZ        24.7380   11.6080   48.9920 N.3   186  LYS186     -0.1314
     73  N         22.0230   16.4790   42.9480 N.3   188  PRO188     -0.2102
     74  CA        21.2680   17.3290   43.8650 C.3   188  PRO188      0.1504
     75  C         20.0030   17.8100   43.1720 C.2   188  PRO188      0.2576
     76  O         19.9910   17.9820   41.9510 O.2   188  PRO188     -0.2718
     77  CB        22.2330   18.4740   44.1330 C.3   188  PRO188      0.0282
     78  CG        22.9190   18.6350   42.8140 C.3   188  PRO188      0.0208
     79  CD        23.1910   17.2000   42.4040 C.3   188  PRO188      0.0893
     80  N         18.9310   18.0020   43.9320 N.am  189  THR189     -0.1953
     81  CA        17.7050   18.5130   43.3410 C.3   189  THR189      0.1897
     82  C         17.9260   20.0140   43.2140 C.2   189  THR189      0.2313
     83  O         18.6540   20.6090   44.0090 O.2   189  THR189     -0.2863
     84  CB        16.4750   18.2520   44.2310 C.3   189  THR189      0.1794
     85  OG1       16.7550   18.6800   45.5680 O.3   189  THR189     -0.2208
     86  CG2       16.1160   16.7810   44.2220 C.3   189  THR189      0.0378
     87  N         19.8270   13.8360   45.9090 N.3   223  ASP223     -0.1225
     88  CA        20.1150   14.4140   47.2120 C.3   223  ASP223      0.1805
     89  C         19.1960   15.6310   47.3000 C.2   223  ASP223      0.2598
     90  O         19.2050   16.4880   46.4120 O.2   223  ASP223     -0.2718
     91  CB        21.5800   14.8340   47.3040 C.3   223  ASP223      0.1424
     92  CG        21.9770   15.2360   48.7080 C.2   223  ASP223      0.3668
     93  OD1       21.4810   16.2730   49.1980 O.co2 223  ASP223     -0.2456
     94  OD2       22.7780   14.5080   49.3200 O.co2 223  ASP223     -0.2456
     95  N         18.4060   15.7140   48.3670 N.am  224  CYS224     -0.1956
     96  CA        17.4490   16.8100   48.5140 C.3   224  CYS224      0.1843
     97  C         17.7730   17.8400   49.5950 C.2   224  CYS224      0.2625
     98  O         16.9910   18.7570   49.8450 O.2   224  CYS224     -0.2714
     99  CB        16.0540   16.2210   48.7480 C.3   224  CYS224      0.0997
    100  SG        15.5870   14.9470   47.5330 S.3   224  CYS224     -0.0797
    101  N         18.9240   17.6710   50.2320 N.am  225  TRP225     -0.1974
    102  CA        19.4230   18.5760   51.2650 C.3   225  TRP225      0.1640
    103  C         18.3790   19.3020   52.1360 C.2   225  TRP225      0.2290
    104  O         18.2960   20.5350   52.1140 O.2   225  TRP225     -0.2864
    105  CB        20.3480   19.6160   50.6150 C.3   225  TRP225      0.0576
    106  CG        21.5010   20.0560   51.4820 C.ar  225  TRP225      0.0006
    107  CD1       22.6120   19.3310   51.7970 C.ar  225  TRP225      0.0946
    108  CD2       21.6540   21.3260   52.1290 C.ar  225  TRP225      0.0152
    109  NE1       23.4510   20.0690   52.5970 N.ar  225  TRP225     -0.2442
    110  CE2       22.8870   21.2990   52.8170 C.ar  225  TRP225      0.0810
    111  CE3       20.8680   22.4860   52.1920 C.ar  225  TRP225      0.0012
    112  CZ2       23.3570   22.3880   53.5620 C.ar  225  TRP225      0.0191
    113  CZ3       21.3350   23.5720   52.9330 C.ar  225  TRP225      0.0001
    114  CH2       22.5690   23.5130   53.6070 C.ar  225  TRP225      0.0015
    115  N         17.5090   11.0770   49.0450 N.3   249  GLU249     -0.1245
    116  CA        18.1820   11.4730   50.2800 C.3   249  GLU249      0.1567
    117  C         17.8530   12.7830   50.9790 C.2   249  GLU249      0.2260
    118  O         17.6450   13.8180   50.3450 O.2   249  GLU249     -0.2867
    119  CB        19.6890   11.4220   50.0180 C.3   249  GLU249      0.0388
    120  CG        20.5910   11.8970   51.1500 C.3   249  GLU249      0.1160
    121  CD        22.0570   11.7010   50.8070 C.2   249  GLU249      0.3649
    122  OE1       22.3570   10.7460   50.0590 O.co2 249  GLU249     -0.2457
    123  OE2       22.9070   12.4760   51.2880 O.co2 249  GLU249     -0.2457
    124  N         23.2290   12.7160   57.4780 N.3   277  GLU277     -0.1245
    125  CA        24.4500   13.5080   57.4590 C.3   277  GLU277      0.1567
    126  C         24.4430   14.6820   58.4300 C.2   277  GLU277      0.2260
    127  O         25.5030   15.1140   58.8830 O.2   277  GLU277     -0.2867
    128  CB        24.7510   13.9960   56.0420 C.3   277  GLU277      0.0388
    129  CG        23.8550   15.0850   55.5170 C.3   277  GLU277      0.1160
    130  CD        24.0700   15.3020   54.0300 C.2   277  GLU277      0.3649
    131  OE1       23.8350   14.3420   53.2620 O.co2 277  GLU277     -0.2457
    132  OE2       24.4800   16.4190   53.6380 O.co2 277  GLU277     -0.2457
    133  N         28.6810   10.1340   54.9540 N.3   326  HIS326     -0.1241
    134  CA        28.6930   11.2800   54.0570 C.3   326  HIS326      0.1621
    135  C         30.1450   11.7430   53.8750 C.2   326  HIS326      0.2264
    136  O         30.8030   12.1140   54.8480 O.2   326  HIS326     -0.2867
    137  CB        27.8370   12.3960   54.6650 C.3   326  HIS326      0.0745
    138  CG        28.0710   13.7470   54.0680 C.ar  326  HIS326      0.0817
    139  ND1       29.2060   14.4870   54.3190 N.ar  326  HIS326     -0.2268
    140  CD2       27.2970   14.5110   53.2620 C.ar  326  HIS326      0.1154
    141  CE1       29.1200   15.6490   53.6980 C.ar  326  HIS326      0.1986
    142  NE2       27.9700   15.6900   53.0490 N.ar  326  HIS326     -0.2212
    143  N         30.8110    7.0040   49.5570 N.3   346  GLU346     -0.1245
    144  CA        30.6060    8.2200   48.7870 C.3   346  GLU346      0.1567
    145  C         31.8490    9.0640   48.5570 C.2   346  GLU346      0.2260
    146  O         32.7280    9.1680   49.4150 O.2   346  GLU346     -0.2867
    147  CB        29.5530    9.1120   49.4580 C.3   346  GLU346      0.0388
    148  CG        29.4700   10.5100   48.8400 C.3   346  GLU346      0.1160
    149  CD        28.4950   11.4320   49.5480 C.2   346  GLU346      0.3649
    150  OE1       28.5010   11.4720   50.8010 O.co2 346  GLU346     -0.2457
    151  OE2       27.7340   12.1310   48.8430 O.co2 346  GLU346     -0.2457
    152  N         32.3220   12.8950   47.2870 N.3   348  LEU348     -0.1245
    153  CA        31.6510   14.1420   46.9410 C.3   348  LEU348      0.1561
    154  C         32.5820   14.9880   46.0770 C.2   348  LEU348      0.2260
    155  O         33.6170   15.4540   46.5440 O.2   348  LEU348     -0.2867
    156  CB        31.2720   14.8980   48.2220 C.3   348  LEU348      0.0270
    157  CG        30.6370   16.2880   48.1350 C.3   348  LEU348      0.0019
    158  CD1       29.3780   16.2610   47.2820 C.3   348  LEU348      0.0001
    159  CD2       30.3200   16.7630   49.5500 C.3   348  LEU348      0.0001
@<TRIPOS>BOND
     1    15    12    1
     2    15    16    1
     3    12    11    1
     4    12    13    1
     5    16    17   ar
     6    16    18   ar
     7    17    19   ar
     8    76    75    2
     9    13    14    2
    10    13    25   am
    11    18    21   ar
    12    18    20   ar
    13    64    65    1
    14    79    78    1
    15    79    73    1
    16    21    23   ar
    17    19    20   ar
    18    66    67    2
    19    66    65    1
    20    78    77    1
    21    73    74    1
    22    20    22   ar
    23    25    26    1
    24    65    68    1
    25    75    74    1
    26    75    80   am
    27    82    81    1
    28    82    83    2
    29    81    80    1
    30    81    84    1
    31    59    60    2
    32    59    58    1
    33    23    24   ar
    34    74    77    1
    35    40    38    1
    36    57    58    1
    37    33    34    1
    38    22    24   ar
    39    58    61    1
    40    86    84    1
    41    84    85    1
    42    26    27    1
    43    26    29    1
    44    68    69    1
    45    34    35    1
    46    34    37    1
    47    38    37    1
    48    27    28    2
    49    29    31    1
    50    29    30    1
    51    69    70    1
    52    61    63    1
    53    61    62    1
    54    41    35   am
    55    41    42    1
    56    35    36    2
    57    37    39    1
    58    87    88    1
    59   154   155    2
    60   154   153    1
    61    45    42    1
    62    90    89    2
    63    42    43    1
    64    30    32    1
    65   153   152    1
    66   153   156    1
    67    70    71    1
    68    88    89    1
    69    88    91    1
    70   158   157    1
    71    89    95   am
    72    91    92    1
    73    46    47    1
    74   100    99    1
    75    71    72    1
    76    43    44    2
    77   157   156    1
    78   157   159    1
    79    56    54    1
    80    95    96    1
    81    96    99    1
    82    96    97    1
    83   145   144    1
    84   145   146    2
    85    53    54    2
    86    53    52    1
    87    51    50    1
    88    51    52    1
    89    92    93   ar
    90    92    94   ar
    91   144   147    1
    92   144   143    1
    93   148   147    1
    94   148   149    1
    95   151   149   ar
    96    54    55    1
    97    47    50    1
    98    47    48    1
    99   115   116    1
   100   149   150   ar
   101    97    98    2
   102    97   101   am
   103    48    49    2
   104   119   116    1
   105   119   120    1
   106   122   121   ar
   107     4     3    2
   108   101   102    1
   109   116   117    1
   110   118   117    2
   111     8    10   ar
   112     8     6   ar
   113   105   102    1
   114   105   106    1
   115     3     2    1
   116     2     5    1
   117     2     1    1
   118   121   120    1
   119   121   123   ar
   120    10     9   ar
   121   102   103    1
   122     5     6    1
   123     6     7   ar
   124   106   107   ar
   125   106   108   ar
   126   107   109   ar
   127   104   103    2
   128   108   111   ar
   129   108   110   ar
   130   111   113   ar
   131     9     7   ar
   132   109   110   ar
   133   110   112   ar
   134   113   114   ar
   135   142   140   ar
   136   142   141   ar
   137   140   138   ar
   138   131   130   ar
   139   112   114   ar
   140   132   130   ar
   141   141   139   ar
   142   135   134    1
   143   135   136    2
   144   130   129    1
   145   134   137    1
   146   134   133    1
   147   138   139   ar
   148   138   137    1
   149   129   128    1
   150   128   125    1
   151   125   124    1
   152   125   126    1
   153   126   127    2
