@<TRIPOS>MOLECULE
tmp/3cxuA00.pdb
 155 151 0 0 0
SMALL
GASTEIGER

@<TRIPOS>ATOM
      1  N         42.5170   89.6340   10.3570 N.3   104  ASP104     -0.1225
      2  CA        43.6620   88.7380   10.0940 C.3   104  ASP104      0.1805
      3  C         44.3430   89.0480    8.7400 C.2   104  ASP104      0.2597
      4  O         44.7850   90.1810    8.5300 O.2   104  ASP104     -0.2718
      5  CB        43.2130   87.2720   10.2230 C.3   104  ASP104      0.1424
      6  CG        44.3590   86.2940   10.1780 C.2   104  ASP104      0.3668
      7  OD1       45.1420   86.2430   11.1510 O.co2 104  ASP104     -0.2456
      8  OD2       44.4610   85.5600    9.1720 O.co2 104  ASP104     -0.2456
      9  N         44.4270   88.0710    7.8300 N.am  105  TRP105     -0.1976
     10  CA        44.9200   88.3420    6.4660 C.3   105  TRP105      0.1640
     11  C         44.0790   89.3940    5.7370 C.2   105  TRP105      0.2290
     12  O         44.6080   90.1790    4.9460 O.2   105  TRP105     -0.2864
     13  CB        45.0460   87.0660    5.6230 C.3   105  TRP105      0.0576
     14  CG        46.4670   86.5520    5.5720 C.ar  105  TRP105      0.0006
     15  CD1       46.9650   85.4370    6.1910 C.ar  105  TRP105      0.0946
     16  CD2       47.5730   87.1640    4.8970 C.ar  105  TRP105      0.0152
     17  NE1       48.3140   85.3120    5.9280 N.ar  105  TRP105     -0.2442
     18  CE2       48.7100   86.3580    5.1360 C.ar  105  TRP105      0.0810
     19  CE3       47.7110   88.3110    4.1010 C.ar  105  TRP105      0.0012
     20  CZ2       49.9690   86.6650    4.6130 C.ar  105  TRP105      0.0191
     21  CZ3       48.9630   88.6140    3.5810 C.ar  105  TRP105      0.0001
     22  CH2       50.0750   87.7900    3.8400 C.ar  105  TRP105      0.0015
     23  N         45.3240   92.7460    6.8810 N.3   108  LEU108     -0.1245
     24  CA        46.5810   93.0670    6.2140 C.3   108  LEU108      0.1561
     25  C         46.3150   93.6080    4.8080 C.2   108  LEU108      0.2260
     26  O         46.9260   94.5980    4.3930 O.2   108  LEU108     -0.2867
     27  CB        47.4990   91.8340    6.1890 C.3   108  LEU108      0.0270
     28  CG        49.0180   92.0140    6.2300 C.3   108  LEU108      0.0019
     29  CD1       49.4600   92.9920    7.3290 C.3   108  LEU108      0.0001
     30  CD2       49.6830   90.6610    6.4340 C.3   108  LEU108      0.0001
     31  N         45.0000   92.0640   13.4560 N.3   129  VAL129     -0.1231
     32  CA        46.3090   92.4000   12.8950 C.3   129  VAL129      0.1692
     33  C         46.5190   93.9140   12.7930 C.2   129  VAL129      0.2592
     34  O         45.8850   94.6060   11.9820 O.2   129  VAL129     -0.2718
     35  CB        46.5710   91.6720   11.5430 C.3   129  VAL129      0.0266
     36  CG1       47.8500   92.1740   10.8780 C.3   129  VAL129      0.0020
     37  CG2       46.6600   90.1630   11.7620 C.3   129  VAL129      0.0020
     38  N         47.4150   94.4090   13.6400 N.am  130  HIS130     -0.1962
     39  CA        47.8140   95.8150   13.6530 C.3   130  HIS130      0.1787
     40  C         48.6370   96.1440   12.4110 C.2   130  HIS130      0.2620
     41  O         49.1080   95.2370   11.7190 O.2   130  HIS130     -0.2715
     42  CB        48.6140   96.1240   14.9250 C.3   130  HIS130      0.0785
     43  CG        49.7380   95.1650   15.1840 C.ar  130  HIS130      0.0821
     44  ND1       49.5310   93.8740   15.6220 N.ar  130  HIS130     -0.2267
     45  CD2       51.0790   95.3120   15.0680 C.ar  130  HIS130      0.1154
     46  CE1       50.6960   93.2660   15.7640 C.ar  130  HIS130      0.1986
     47  NE2       51.6520   94.1170   15.4350 N.ar  130  HIS130     -0.2212
     48  N         48.7940   97.4350   12.1250 N.am  131  PHE131     -0.1960
     49  CA        49.5920   97.8790   10.9790 C.3   131  PHE131      0.1771
     50  C         50.9900   97.2760   11.0550 C.2   131  PHE131      0.2620
     51  O         51.6550   97.3650   12.0880 O.2   131  PHE131     -0.2715
     52  CB        49.6760   99.4090   10.9240 C.3   131  PHE131      0.0574
     53  CG        50.4010   99.9350    9.7130 C.ar  131  PHE131     -0.0200
     54  CD1       49.7370  100.0850    8.4960 C.ar  131  PHE131     -0.0042
     55  CD2       51.7470  100.2770    9.7860 C.ar  131  PHE131     -0.0042
     56  CE1       50.4050  100.5660    7.3700 C.ar  131  PHE131     -0.0003
     57  CE2       52.4240  100.7630    8.6680 C.ar  131  PHE131     -0.0003
     58  CZ        51.7490  100.9080    7.4580 C.ar  131  PHE131     -0.0000
     59  N         51.4190   96.6480    9.9640 N.am  132  SER132     -0.1936
     60  CA        52.7300   96.0100    9.9160 C.3   132  SER132      0.2055
     61  C         53.7670   96.9640    9.3320 C.2   132  SER132      0.2642
     62  O         53.9040   97.0810    8.1100 O.2   132  SER132     -0.2714
     63  CB        52.6760   94.6970    9.1250 C.3   132  SER132      0.2130
     64  OG        52.3230   94.9230    7.7670 O.3   132  SER132     -0.2179
     65  N         54.4780   97.6640   10.2110 N.am  133  LYS133     -0.1977
     66  CA        55.5580   98.5440    9.7780 C.3   133  LYS133      0.1596
     67  C         56.6960   97.6940    9.2130 C.2   133  LYS133      0.2287
     68  O         57.1700   96.7630    9.8690 O.2   133  LYS133     -0.2864
     69  CB        56.0430   99.4290   10.9280 C.3   133  LYS133      0.0298
     70  CG        57.2470  100.3000   10.5670 C.3   133  LYS133      0.0038
     71  CD        57.7300  101.1350   11.7390 C.3   133  LYS133      0.0206
     72  CE        57.2290  102.5680   11.6530 C.3   133  LYS133      0.1093
     73  NZ        57.7210  103.2810   10.4300 N.3   133  LYS133     -0.1314
     74  N         59.1340   89.1250    7.2260 N.3   140  VAL140     -0.1245
     75  CA        58.3540   88.6210    8.3580 C.3   140  VAL140      0.1561
     76  C         58.6720   87.1550    8.6830 C.2   140  VAL140      0.2260
     77  O         58.7960   86.7830    9.8550 O.2   140  VAL140     -0.2867
     78  CB        56.8310   88.8320    8.0960 C.3   140  VAL140      0.0252
     79  CG1       55.9720   87.9540    8.9900 C.3   140  VAL140      0.0019
     80  CG2       56.4600   90.3130    8.2630 C.3   140  VAL140      0.0019
     81  N         60.3020   86.1090   12.2680 N.3   144  LEU144     -0.1245
     82  CA        59.5660   85.2650   13.2110 C.3   144  LEU144      0.1561
     83  C         60.2390   83.9090   13.4250 C.2   144  LEU144      0.2260
     84  O         60.1140   83.3150   14.4990 O.2   144  LEU144     -0.2867
     85  CB        58.1060   85.0990   12.7780 C.3   144  LEU144      0.0270
     86  CG        57.1950   86.3240   12.9440 C.3   144  LEU144      0.0019
     87  CD1       55.8880   86.1170   12.2060 C.3   144  LEU144      0.0001
     88  CD2       56.9270   86.6640   14.4170 C.3   144  LEU144      0.0001
     89  N         54.6340   78.1890   12.7400 N.3   153  TYR153     -0.1227
     90  CA        53.7080   77.8750   11.6440 C.3   153  TYR153      0.1736
     91  C         54.0150   78.5620   10.3160 C.2   153  TYR153      0.2595
     92  O         53.9250   77.9330    9.2660 O.2   153  TYR153     -0.2718
     93  CB        52.2380   78.0690   12.0500 C.3   153  TYR153      0.0548
     94  CG        51.7690   79.4940   12.2790 C.ar  153  TYR153     -0.0200
     95  CD1       50.8260   80.0770   11.4340 C.ar  153  TYR153     -0.0009
     96  CD2       52.2320   80.2400   13.3610 C.ar  153  TYR153     -0.0009
     97  CE1       50.3670   81.3800   11.6520 C.ar  153  TYR153      0.0417
     98  CE2       51.7830   81.5380   13.5880 C.ar  153  TYR153      0.0417
     99  CZ        50.8520   82.1010   12.7300 C.ar  153  TYR153      0.1957
    100  OH        50.4140   83.3900   12.9540 O.3   153  TYR153     -0.2866
    101  N         54.3990   79.8350   10.3660 N.am  154  ILE154     -0.1980
    102  CA        54.6760   80.5960    9.1410 C.3   154  ILE154      0.1595
    103  C         55.8940   80.0160    8.4080 C.2   154  ILE154      0.2287
    104  O         55.9200   79.9700    7.1800 O.2   154  ILE154     -0.2864
    105  CB        54.8050   82.1230    9.4080 C.3   154  ILE154      0.0276
    106  CG1       53.4780   82.6640    9.9700 C.3   154  ILE154      0.0022
    107  CG2       55.1790   82.8770    8.1190 C.3   154  ILE154      0.0022
    108  CD1       53.4200   84.1760   10.1910 C.3   154  ILE154      0.0001
    109  N         50.9600   83.1560    3.0070 N.3   234  TYR234     -0.1241
    110  CA        52.1720   83.1450    3.8230 C.3   234  TYR234      0.1605
    111  C         53.4200   82.8940    2.9730 C.2   234  TYR234      0.2264
    112  O         54.4880   83.4140    3.2720 O.2   234  TYR234     -0.2867
    113  CB        52.0790   82.0890    4.9320 C.3   234  TYR234      0.0534
    114  CG        50.9670   82.3170    5.9370 C.ar  234  TYR234     -0.0201
    115  CD1       51.1700   83.1160    7.0640 C.ar  234  TYR234     -0.0009
    116  CD2       49.7160   81.7240    5.7680 C.ar  234  TYR234     -0.0009
    117  CE1       50.1510   83.3210    7.9990 C.ar  234  TYR234      0.0417
    118  CE2       48.6950   81.9240    6.6920 C.ar  234  TYR234      0.0417
    119  CZ        48.9200   82.7200    7.8020 C.ar  234  TYR234      0.1957
    120  OH        47.9080   82.9160    8.7120 O.3   234  TYR234     -0.2866
    121  N         54.8210   86.0580    1.5410 N.3   237  LEU237     -0.1245
    122  CA        55.3650   87.0380    2.4930 C.3   237  LEU237      0.1561
    123  C         56.7560   87.5820    2.1310 C.2   237  LEU237      0.2260
    124  O         56.9610   88.7930    2.2180 O.2   237  LEU237     -0.2867
    125  CB        55.3230   86.5230    3.9450 C.3   237  LEU237      0.0270
    126  CG        53.9760   86.6190    4.6790 C.3   237  LEU237      0.0019
    127  CD1       54.0110   85.8120    5.9810 C.3   237  LEU237      0.0001
    128  CD2       53.5800   88.0760    4.9630 C.3   237  LEU237      0.0001
    129  N         48.6850   87.0440   17.6940 N.3   266  VAL266     -0.1245
    130  CA        49.2420   88.1780   16.9390 C.3   266  VAL266      0.1561
    131  C         49.5590   89.3530   17.8800 C.2   266  VAL266      0.2260
    132  O         50.5820   90.0270   17.7360 O.2   266  VAL266     -0.2867
    133  CB        48.2850   88.6100   15.7890 C.3   266  VAL266      0.0252
    134  CG1       48.8210   89.8420   15.0400 C.3   266  VAL266      0.0019
    135  CG2       48.0710   87.4550   14.8230 C.3   266  VAL266      0.0019
    136  N         52.9980   88.8460   19.6910 N.3   269  ILE269     -0.1245
    137  CA        54.2670   88.8930   18.9660 C.3   269  ILE269      0.1561
    138  C         55.1500   89.9320   19.6650 C.2   269  ILE269      0.2260
    139  O         54.6730   91.0210   19.9800 O.2   269  ILE269     -0.2867
    140  CB        54.0570   89.2450   17.4680 C.3   269  ILE269      0.0252
    141  CG1       53.3100   88.1080   16.7540 C.3   269  ILE269      0.0019
    142  CG2       55.3930   89.5390   16.7720 C.3   269  ILE269      0.0019
    143  CD1       52.8410   88.4490   15.3420 C.3   269  ILE269      0.0001
    144  N         54.2250   98.6600   20.2660 N.3   275  TYR275     -0.1241
    145  CA        53.9120   99.3580   19.0180 C.3   275  TYR275      0.1605
    146  C         52.4870   99.9160   19.0320 C.2   275  TYR275      0.2264
    147  O         52.2670  101.0840   18.6980 O.2   275  TYR275     -0.2867
    148  CB        54.1130   98.4420   17.8030 C.3   275  TYR275      0.0534
    149  CG        53.6500   99.0650   16.5040 C.ar  275  TYR275     -0.0201
    150  CD1       54.4420   99.9980   15.8330 C.ar  275  TYR275     -0.0009
    151  CD2       52.4080   98.7370   15.9550 C.ar  275  TYR275     -0.0009
    152  CE1       54.0080  100.5850   14.6400 C.ar  275  TYR275      0.0417
    153  CE2       51.9680   99.3160   14.7660 C.ar  275  TYR275      0.0417
    154  CZ        52.7710  100.2350   14.1160 C.ar  275  TYR275      0.1957
    155  OH        52.3320  100.8070   12.9470 O.3   275  TYR275     -0.2866
@<TRIPOS>BOND
     1   121   122    1
     2   123   124    2
     3   123   122    1
     4   122   125    1
     5   111   112    2
     6   111   110    1
     7   109   110    1
     8    21    22   ar
     9    21    19   ar
    10   110   113    1
    11    22    20   ar
    12   125   126    1
    13    19    16   ar
    14    26    25    2
    15    20    18   ar
    16   126   128    1
    17   126   127    1
    18    25    24    1
    19    16    18   ar
    20    16    14   ar
    21   113   114    1
    22    12    11    2
    23    18    17   ar
    24    14    13    1
    25    14    15   ar
    26    13    10    1
    27    11    10    1
    28   116   114   ar
    29   116   118   ar
    30    17    15   ar
    31   114   115   ar
    32    27    24    1
    33    27    28    1
    34    24    23    1
    35    28    30    1
    36    28    29    1
    37    10     9    1
    38   118   119   ar
    39   115   117   ar
    40   104   103    2
    41    74    75    1
    42    56    58   ar
    43    56    54   ar
    44    58    57   ar
    45    64    63    1
    46   119   117   ar
    47   119   120    1
    48     9     3   am
    49    78    80    1
    50    78    75    1
    51    78    79    1
    52    62    61    2
    53   107   105    1
    54    75    76    1
    55   103   102    1
    56    54    53   ar
    57     4     3    2
    58    57    55   ar
    59    76    77    2
    60     3     2    1
    61    63    60    1
    62   102   105    1
    63   102   101    1
    64     8     6   ar
    65    67    66    1
    66    67    68    2
    67    92    91    2
    68    61    60    1
    69    61    65   am
    70   105   106    1
    71    53    55   ar
    72    53    52    1
    73    66    65    1
    74    66    69    1
    75    60    59    1
    76    59    50   am
    77   106   108    1
    78     2     5    1
    79     2     1    1
    80     6     5    1
    81     6     7   ar
    82    91   101   am
    83    91    90    1
    84    73    72    1
    85    70    69    1
    86    70    71    1
    87    36    35    1
    88    52    49    1
    89    49    50    1
    90    49    48    1
    91    50    51    2
    92    95    97   ar
    93    95    94   ar
    94    35    37    1
    95    35    32    1
    96    90    93    1
    97    90    89    1
    98    97    99   ar
    99    72    71    1
   100    41    40    2
   101    34    33    2
   102    93    94    1
   103    48    40   am
   104    87    86    1
   105    81    82    1
   106    94    96   ar
   107    40    39    1
   108    99   100    1
   109    99    98   ar
   110    85    86    1
   111    85    82    1
   112    33    32    1
   113    33    38   am
   114    32    31    1
   115    86    88    1
   116   155   154    1
   117    82    83    1
   118    96    98   ar
   119    83    84    2
   120    38    39    1
   121    39    42    1
   122   154   152   ar
   123   154   153   ar
   124   152   150   ar
   125   153   151   ar
   126   135   133    1
   127    42    43    1
   128   134   133    1
   129    45    43   ar
   130    45    47   ar
   131    43    44   ar
   132   143   141    1
   133    47    46   ar
   134    44    46   ar
   135   133   130    1
   136   150   149   ar
   137   151   149   ar
   138   149   148    1
   139   141   140    1
   140   142   140    1
   141   130   129    1
   142   130   131    1
   143   140   137    1
   144   132   131    2
   145   148   145    1
   146   147   146    2
   147   137   138    1
   148   137   136    1
   149   145   146    1
   150   145   144    1
   151   138   139    2
