@<TRIPOS>MOLECULE
tmp/3cy2A00.pdb
 158 147 0 0 0
SMALL
GASTEIGER

@<TRIPOS>ATOM
      1  N        -25.0390   34.4890   -3.7620 N.3    12  LEU12      -0.1231
      2  CA       -24.1480   35.6200   -4.0490 C.3    12  LEU12       0.1693
      3  C        -22.8410   35.1730   -4.7140 C.2    12  LEU12       0.2593
      4  O        -22.2830   35.9010   -5.5440 O.2    12  LEU12      -0.2718
      5  CB       -23.8320   36.4060   -2.7720 C.3    12  LEU12       0.0284
      6  CG       -24.9870   37.1120   -2.0710 C.3    12  LEU12       0.0019
      7  CD1      -24.4960   37.7780   -0.7700 C.3    12  LEU12       0.0001
      8  CD2      -25.6620   38.1160   -2.9990 C.3    12  LEU12       0.0001
      9  N        -22.3600   33.9810   -4.3600 N.am   13  GLY13      -0.1942
     10  CA       -21.1540   33.4210   -4.9710 C.3    13  GLY13       0.2014
     11  C        -20.9210   31.9700   -4.5700 C.2    13  GLY13       0.2639
     12  O        -21.4640   31.4980   -3.5890 O.2    13  GLY13      -0.2714
     13  N        -20.1380   31.2500   -5.3580 N.am   14  SER14      -0.1949
     14  CA       -19.7110   29.8980   -4.9960 C.3    14  SER14       0.1924
     15  C        -18.3490   29.5990   -5.6030 C.2    14  SER14       0.2314
     16  O        -17.9720   30.1960   -6.5980 O.2    14  SER14      -0.2863
     17  CB       -20.7300   28.8340   -5.4680 C.3    14  SER14       0.2116
     18  OG       -20.8470   28.8130   -6.8690 O.3    14  SER14      -0.2180
     19  N        -14.2330   27.0600   -1.9780 N.3    17  PHE17      -0.1241
     20  CA       -14.5870   27.2750   -0.5700 C.3    17  PHE17       0.1605
     21  C        -15.9480   26.6710   -0.1920 C.2    17  PHE17       0.2264
     22  O        -16.0980   26.0630    0.8770 O.2    17  PHE17      -0.2867
     23  CB       -14.5470   28.7900   -0.2180 C.3    17  PHE17       0.0534
     24  CG       -15.6360   29.6160   -0.8720 C.ar   17  PHE17      -0.0203
     25  CD1      -15.4340   30.1840   -2.1070 C.ar   17  PHE17      -0.0042
     26  CD2      -16.8550   29.8430   -0.2200 C.ar   17  PHE17      -0.0042
     27  CE1      -16.4350   30.9430   -2.7280 C.ar   17  PHE17      -0.0003
     28  CE2      -17.8550   30.6170   -0.8140 C.ar   17  PHE17      -0.0003
     29  CZ       -17.6520   31.1620   -2.0740 C.ar   17  PHE17      -0.0000
     30  N        -22.0710   31.0730   -0.9040 N.3    20  VAL20      -0.1245
     31  CA       -22.5260   32.1350    0.0110 C.3    20  VAL20       0.1561
     32  C        -23.8120   32.7780   -0.5460 C.2    20  VAL20       0.2260
     33  O        -23.9110   33.0730   -1.7420 O.2    20  VAL20      -0.2867
     34  CB       -21.3910   33.1860    0.3220 C.3    20  VAL20       0.0252
     35  CG1      -20.8040   33.7620   -0.9430 C.3    20  VAL20       0.0019
     36  CG2      -21.8980   34.2940    1.2300 C.3    20  VAL20       0.0019
     37  N        -24.7650   37.7550    5.1500 N.3    33  ALA33      -0.1245
     38  CA       -24.3020   36.7660    4.1790 C.3    33  ALA33       0.1562
     39  C        -24.1790   35.4150    4.9100 C.2    33  ALA33       0.2260
     40  O        -23.6460   35.3350    6.0440 O.2    33  ALA33      -0.2867
     41  CB       -22.9340   37.2080    3.5520 C.3    33  ALA33       0.0290
     42  N        -22.6550   31.7980    4.6340 N.3    35  LYS35      -0.1245
     43  CA       -21.5390   31.1400    3.9690 C.3    35  LYS35       0.1561
     44  C        -21.4520   29.6760    4.3950 C.2    35  LYS35       0.2260
     45  O        -21.2310   29.3640    5.5650 O.2    35  LYS35      -0.2867
     46  CB       -20.2130   31.8570    4.3030 C.3    35  LYS35       0.0271
     47  CG       -18.9820   31.2450    3.6110 C.3    35  LYS35       0.0035
     48  CD       -17.7050   31.9790    4.0000 C.3    35  LYS35       0.0206
     49  CE       -16.5170   31.5830    3.1220 C.3    35  LYS35       0.1093
     50  NZ       -15.3040   32.4410    3.3630 N.3    35  LYS35      -0.1314
     51  N        -14.6990   42.1840    8.0120 N.3    70  ILE70      -0.1245
     52  CA       -16.0230   41.5620    8.1160 C.3    70  ILE70       0.1561
     53  C        -16.2390   41.0030    9.5450 C.2    70  ILE70       0.2260
     54  O        -15.3240   40.4520   10.1780 O.2    70  ILE70      -0.2867
     55  CB       -16.2670   40.4830    6.9730 C.3    70  ILE70       0.0252
     56  CG1      -17.7770   40.2020    6.7470 C.3    70  ILE70       0.0019
     57  CG2      -15.4770   39.1730    7.2310 C.3    70  ILE70       0.0019
     58  CD1      -18.3500   40.8440    5.5240 C.3    70  ILE70       0.0001
     59  N        -22.2620   36.2130    8.3300 N.3    86  LEU86      -0.1231
     60  CA       -21.4260   37.3900    8.2070 C.3    86  LEU86       0.1693
     61  C        -22.2930   38.6340    8.0380 C.2    86  LEU86       0.2592
     62  O        -23.3670   38.5700    7.4540 O.2    86  LEU86      -0.2718
     63  CB       -20.4760   37.2450    6.9970 C.3    86  LEU86       0.0284
     64  CG       -19.5260   36.0260    7.0470 C.3    86  LEU86       0.0019
     65  CD1      -18.9560   35.7650    5.6660 C.3    86  LEU86       0.0001
     66  CD2      -18.4100   36.2190    8.0770 C.3    86  LEU86       0.0001
     67  N        -21.8310   39.7700    8.5570 N.am   87  GLU87      -0.1966
     68  CA       -22.5100   41.0530    8.2910 C.3    87  GLU87       0.1733
     69  C        -22.4130   41.3620    6.7880 C.2    87  GLU87       0.2616
     70  O        -21.4030   41.0800    6.1420 O.2    87  GLU87      -0.2715
     71  CB       -21.9380   42.2210    9.1400 C.3    87  GLU87       0.0429
     72  CG       -22.9030   42.4650   10.3030 C.3    87  GLU87       0.1163
     73  CD       -22.7700   43.8640   10.9040 C.2    87  GLU87       0.3649
     74  OE1      -23.7600   44.6140   10.8440 O.co2  87  GLU87      -0.2457
     75  OE2      -21.6860   44.2150   11.4220 O.co2  87  GLU87      -0.2457
     76  N        -23.4770   41.9060    6.2180 N.am   88  ARG88      -0.1964
     77  CA       -23.4710   42.2170    4.7930 C.3    88  ARG88       0.1714
     78  C        -23.7680   43.6940    4.6110 C.2    88  ARG88       0.2458
     79  O        -24.8700   44.1360    4.9550 O.2    88  ARG88      -0.2730
     80  CB       -24.5160   41.3710    4.0420 C.3    88  ARG88       0.0347
     81  CG       -24.7920   41.8190    2.6260 C.3    88  ARG88       0.0492
     82  CD       -25.5760   40.7630    1.8520 C.3    88  ARG88       0.2205
     83  NE       -26.9200   40.5190    2.3710 N.pl3  88  ARG88      -0.0865
     84  CZ       -27.9850   41.2940    2.1370 C.cat  88  ARG88       0.5346
     85  NH1      -29.1630   40.9790    2.6500 N.pl3  88  ARG88       0.1354
     86  NH2      -27.8980   42.3690    1.3680 N.pl3  88  ARG88       0.1354
     87  N        -22.8030   44.4520    4.0500 N.am   89  PRO89      -0.2727
     88  CA       -23.1130   45.8310    3.6600 C.3    89  PRO89       0.1402
     89  C        -24.1360   45.8900    2.5180 C.2    89  PRO89       0.2269
     90  O        -24.1920   44.9910    1.6910 O.2    89  PRO89      -0.2865
     91  CB       -21.7550   46.3960    3.1960 C.3    89  PRO89       0.0296
     92  CG       -20.7240   45.3580    3.5180 C.3    89  PRO89       0.0237
     93  CD       -21.4340   44.0580    3.6530 C.3    89  PRO89       0.0939
     94  N        -23.5060   47.0970   -1.8440 N.3    92  VAL92      -0.1245
     95  CA       -22.1550   46.6110   -1.8170 C.3    92  VAL92       0.1561
     96  C        -21.7120   46.2390   -3.2290 C.2    92  VAL92       0.2260
     97  O        -22.5300   45.8180   -4.0650 O.2    92  VAL92      -0.2867
     98  CB       -22.0390   45.3790   -0.8820 C.3    92  VAL92       0.0252
     99  CG1      -22.6530   44.1120   -1.5670 C.3    92  VAL92       0.0019
    100  CG2      -20.5770   45.1560   -0.4450 C.3    92  VAL92       0.0019
    101  N        -17.9240   44.2830   -4.6640 N.3    94  ASP94      -0.1239
    102  CA       -16.5520   43.8870   -4.4410 C.3    94  ASP94       0.1674
    103  C        -15.5990   44.7070   -5.3420 C.2    94  ASP94       0.2266
    104  O        -16.0090   45.3290   -6.3640 O.2    94  ASP94      -0.2867
    105  CB       -16.3520   42.3530   -4.4650 C.3    94  ASP94       0.1410
    106  CG       -16.1660   41.7600   -5.8440 C.2    94  ASP94       0.3668
    107  OD1      -15.5540   42.3540   -6.7410 O.co2  94  ASP94      -0.2456
    108  OD2      -16.5680   40.6030   -5.9980 O.co2  94  ASP94      -0.2456
    109  N         -6.5980   40.4060   -1.8200 N.3   135  LYS135     -0.1245
    110  CA        -6.8370   40.6590   -3.2430 C.3   135  LYS135      0.1561
    111  C         -8.1180   41.4640   -3.4200 C.2   135  LYS135      0.2260
    112  O         -8.9260   41.5350   -2.5110 O.2   135  LYS135     -0.2867
    113  CB        -6.9230   39.3520   -4.0600 C.3   135  LYS135      0.0271
    114  CG        -7.9620   38.3350   -3.6060 C.3   135  LYS135      0.0035
    115  CD        -7.9420   37.1510   -4.5930 C.3   135  LYS135      0.0206
    116  CE        -8.7610   35.9700   -4.1360 C.3   135  LYS135      0.1093
    117  NZ        -8.8870   35.0200   -5.2430 N.3   135  LYS135     -0.1314
    118  N        -10.8180   40.7200   -5.0630 N.3   137  GLU137     -0.1231
    119  CA       -11.9910   39.8150   -4.8820 C.3   137  GLU137      0.1699
    120  C        -12.3920   39.6630   -3.4190 C.2   137  GLU137      0.2592
    121  O        -13.5260   39.3260   -3.1230 O.2   137  GLU137     -0.2718
    122  CB       -11.6800   38.4190   -5.4080 C.3   137  GLU137      0.0402
    123  CG       -11.2160   38.3530   -6.8650 C.3   137  GLU137      0.1161
    124  CD       -10.9990   36.9330   -7.3220 C.2   137  GLU137      0.3649
    125  OE1      -11.9950   36.2000   -7.3380 O.co2 137  GLU137     -0.2457
    126  OE2       -9.8600   36.5680   -7.6770 O.co2 137  GLU137     -0.2457
    127  N        -11.4480   39.8890   -2.5010 N.am  138  ASN138     -0.1974
    128  CA       -11.6860   39.6980   -1.0490 C.3   138  ASN138      0.1688
    129  C        -11.8480   41.0290   -0.3020 C.2   138  ASN138      0.2292
    130  O        -11.5960   41.1350    0.9020 O.2   138  ASN138     -0.2864
    131  CB       -10.5830   38.8190   -0.4520 C.3   138  ASN138      0.1181
    132  CG       -10.6630   37.3740   -0.9170 C.2   138  ASN138      0.2629
    133  OD1      -11.7100   36.9260   -1.3560 O.2   138  ASN138     -0.2716
    134  ND2       -9.5600   36.6130   -0.7690 N.am  138  ASN138     -0.0877
    135  N        -14.8030   44.1700    0.0020 N.3   140  LEU140     -0.1245
    136  CA       -16.1190   44.7320   -0.2550 C.3   140  LEU140      0.1561
    137  C        -16.0840   46.2590   -0.0550 C.2   140  LEU140      0.2260
    138  O        -15.4000   46.7540    0.8280 O.2   140  LEU140     -0.2867
    139  CB       -17.1650   44.1180    0.6780 C.3   140  LEU140      0.0270
    140  CG       -17.4330   42.6070    0.6300 C.3   140  LEU140      0.0019
    141  CD1      -18.6520   42.2530    1.5900 C.3   140  LEU140      0.0001
    142  CD2      -17.6550   42.1740   -0.8210 C.3   140  LEU140      0.0001
    143  N        -12.6210   40.6400    3.6170 N.3   151  ILE151     -0.1231
    144  CA       -13.3690   39.4040    3.7590 C.3   151  ILE151      0.1692
    145  C        -12.4670   38.2220    3.3900 C.2   151  ILE151      0.2592
    146  O        -11.2930   38.3910    3.0090 O.2   151  ILE151     -0.2718
    147  CB       -14.7120   39.4210    2.9140 C.3   151  ILE151      0.0266
    148  CG1      -14.4490   39.3680    1.4030 C.3   151  ILE151      0.0019
    149  CG2      -15.5920   40.6620    3.3040 C.3   151  ILE151      0.0020
    150  CD1      -15.6990   39.1030    0.5750 C.3   151  ILE151      0.0001
    151  N        -13.0310   37.0280    3.5620 N.am  152  ASP152     -0.1974
    152  CA       -12.4250   35.7390    3.1690 C.3   152  ASP152      0.1709
    153  C        -11.1450   35.3600    3.9070 C.2   152  ASP152      0.2293
    154  O        -10.0220   35.4110    3.3590 O.2   152  ASP152     -0.2864
    155  CB       -12.2410   35.6440    1.6430 C.3   152  ASP152      0.1436
    156  CG       -11.8360   34.2500    1.1740 C.2   152  ASP152      0.3671
    157  OD1      -11.5930   33.3270    2.0020 O.co2 152  ASP152     -0.2456
    158  OD2      -11.7300   34.0820   -0.0480 O.co2 152  ASP152     -0.2456
@<TRIPOS>BOND
     1   126   124   ar
     2   125   124   ar
     3   124   123    1
     4    18    17    1
     5   123   122    1
     6   107   106   ar
     7    16    15    2
     8   104   103    2
     9   108   106   ar
    10   106   105    1
    11    15    14    1
    12     4     3    2
    13    17    14    1
    14   122   119    1
    15    13    14    1
    16    13    11   am
    17   103   102    1
    18   117   116    1
    19   118   119    1
    20    10    11    1
    21    10     9    1
    22   119   120    1
    23     3     9   am
    24     3     2    1
    25   101   102    1
    26   115   116    1
    27   115   114    1
    28    11    12    2
    29   105   102    1
    30    97    96    2
    31   113   114    1
    32   113   110    1
    33     2     1    1
    34     2     5    1
    35   111   110    1
    36   111   112    2
    37   120   121    2
    38   120   127   am
    39   110   109    1
    40    96    95    1
    41     8     6    1
    42     5     6    1
    43    27    25   ar
    44    27    29   ar
    45   127   128    1
    46    25    24   ar
    47    29    28   ar
    48     6     7    1
    49    19    20    1
    50    94    95    1
    51    95    98    1
    52    33    32    2
    53    99    98    1
    54   133   132    2
    55   128   131    1
    56   128   129    1
    57    35    34    1
    58   132   134   am
    59   132   131    1
    60    30    31    1
    61    98   100    1
    62    24    26   ar
    63    24    23    1
    64   142   140    1
    65    28    26   ar
    66    20    23    1
    67    20    21    1
    68    32    31    1
    69   129   130    2
    70   136   137    1
    71   136   135    1
    72   136   139    1
    73    21    22    2
    74   137   138    2
    75   158   156   ar
    76    31    34    1
    77    34    36    1
    78   150   148    1
    79   140   139    1
    80   140   141    1
    81   156   155    1
    82   156   157   ar
    83    86    84    1
    84   148   147    1
    85   155   152    1
    86    90    89    2
    87    82    83    1
    88    82    81    1
    89    84    83    2
    90    84    85    1
    91    89    88    1
    92    81    80    1
    93   147   149    1
    94   147   144    1
    95   146   145    2
    96    49    50    1
    97    49    48    1
    98   152   151    1
    99   152   153    1
   100    91    92    1
   101    91    88    1
   102   154   153    2
   103   145   151   am
   104   145   144    1
   105    92    93    1
   106    41    38    1
   107    47    48    1
   108    47    46    1
   109   143   144    1
   110    93    87    1
   111    88    87    1
   112    43    46    1
   113    43    44    1
   114    43    42    1
   115    80    77    1
   116    87    78   am
   117    38    39    1
   118    38    37    1
   119    44    45    2
   120    78    77    1
   121    78    79    2
   122    77    76    1
   123    39    40    2
   124    58    56    1
   125    65    64    1
   126    70    69    2
   127    76    69   am
   128    56    55    1
   129    69    68    1
   130    55    57    1
   131    55    52    1
   132    63    64    1
   133    63    60    1
   134    64    66    1
   135    62    61    2
   136    51    52    1
   137    61    60    1
   138    61    67   am
   139    52    53    1
   140    60    59    1
   141    68    67    1
   142    68    71    1
   143    71    72    1
   144    53    54    2
   145    72    73    1
   146    74    73   ar
   147    73    75   ar
