@<TRIPOS>MOLECULE
tmp/3cy3A00.pdb
 178 166 0 0 0
SMALL
GASTEIGER

@<TRIPOS>ATOM
      1  N        -24.7920   34.1470   -3.6430 N.3    12  LEU12      -0.1231
      2  CA       -23.9060   35.2980   -3.9170 C.3    12  LEU12       0.1693
      3  C        -22.6350   34.8490   -4.6310 C.2    12  LEU12       0.2592
      4  O        -22.1220   35.5380   -5.5010 O.2    12  LEU12      -0.2718
      5  CB       -23.4930   36.0270   -2.6040 C.3    12  LEU12       0.0284
      6  CG       -24.5490   36.7210   -1.7220 C.3    12  LEU12       0.0019
      7  CD1      -23.8410   37.3940   -0.5340 C.3    12  LEU12       0.0001
      8  CD2      -25.4080   37.7270   -2.4660 C.3    12  LEU12       0.0001
      9  N        -22.1190   33.6910   -4.2490 N.am   13  GLY13      -0.1957
     10  CA       -20.9820   33.0850   -4.9410 C.3    13  GLY13       0.1869
     11  C        -20.6920   31.6750   -4.4660 C.2    13  GLY13       0.2309
     12  O        -21.1380   31.2540   -3.3860 O.2    13  GLY13      -0.2863
     13  N        -13.9330   28.2750   -1.9420 N.3    17  PHE17      -0.1241
     14  CA       -14.2540   28.7550   -0.5840 C.3    17  PHE17       0.1605
     15  C        -15.5410   28.1230   -0.0270 C.2    17  PHE17       0.2264
     16  O        -15.7930   28.1580    1.1780 O.2    17  PHE17      -0.2867
     17  CB       -14.3500   30.2900   -0.5890 C.3    17  PHE17       0.0534
     18  CG       -15.2340   30.8330   -1.6720 C.ar   17  PHE17      -0.0203
     19  CD1      -16.5840   31.0660   -1.4340 C.ar   17  PHE17      -0.0042
     20  CD2      -14.7230   31.1080   -2.9230 C.ar   17  PHE17      -0.0042
     21  CE1      -17.3980   31.5640   -2.4330 C.ar   17  PHE17      -0.0003
     22  CE2      -15.5500   31.5930   -3.9400 C.ar   17  PHE17      -0.0003
     23  CZ       -16.8790   31.8330   -3.6780 C.ar   17  PHE17      -0.0000
     24  N        -21.7840   30.6410   -0.7990 N.3    20  VAL20      -0.1245
     25  CA       -22.2240   31.7820    0.0440 C.3    20  VAL20       0.1561
     26  C        -23.5660   32.3300   -0.4520 C.2    20  VAL20       0.2260
     27  O        -23.6950   32.6890   -1.6060 O.2    20  VAL20      -0.2867
     28  CB       -21.1320   32.9250    0.1280 C.3    20  VAL20       0.0252
     29  CG1      -21.6290   34.1350    0.9770 C.3    20  VAL20       0.0019
     30  CG2      -19.8180   32.3690    0.7240 C.3    20  VAL20       0.0019
     31  N        -24.8570   37.0870    5.4000 N.3    33  ALA33      -0.1245
     32  CA       -24.3730   36.1400    4.3930 C.3    33  ALA33       0.1562
     33  C        -24.2480   34.8000    5.1090 C.2    33  ALA33       0.2260
     34  O        -23.9470   34.7520    6.2960 O.2    33  ALA33      -0.2867
     35  CB       -23.0420   36.5870    3.8040 C.3    33  ALA33       0.0290
     36  N        -22.4690   31.1970    4.7500 N.3    35  LYS35      -0.1245
     37  CA       -21.3990   30.4780    4.0870 C.3    35  LYS35       0.1561
     38  C        -21.3940   29.0330    4.5570 C.2    35  LYS35       0.2260
     39  O        -21.3960   28.7560    5.7630 O.2    35  LYS35      -0.2867
     40  CB       -20.0340   31.1240    4.4080 C.3    35  LYS35       0.0271
     41  CG       -18.8460   30.3810    3.8000 C.3    35  LYS35       0.0035
     42  CD       -17.5430   31.1370    4.0150 C.3    35  LYS35       0.0206
     43  CE       -16.3430   30.2900    3.6530 C.3    35  LYS35       0.1093
     44  NZ       -15.0440   31.0260    3.4940 N.3    35  LYS35      -0.1314
     45  N        -10.8830   28.7700   10.1950 N.3    55  GLU55      -0.1245
     46  CA       -11.5650   29.9670    9.7140 C.3    55  GLU55       0.1567
     47  C        -12.4540   30.5960   10.7830 C.2    55  GLU55       0.2260
     48  O        -12.4910   31.8390   10.9140 O.2    55  GLU55      -0.2867
     49  CB       -12.4070   29.6570    8.4510 C.3    55  GLU55       0.0388
     50  CG       -13.0640   30.9150    7.8120 C.3    55  GLU55       0.1160
     51  CD       -13.8800   30.6530    6.5220 C.2    55  GLU55       0.3649
     52  OE1      -14.0600   29.4890    6.1470 O.co2  55  GLU55      -0.2457
     53  OE2      -14.3270   31.6330    5.8750 O.co2  55  GLU55      -0.2457
     54  N        -14.8030   41.6060    7.6710 N.3    70  ILE70      -0.1245
     55  CA       -16.1530   41.0160    7.7900 C.3    70  ILE70       0.1561
     56  C        -16.3450   40.3540    9.1730 C.2    70  ILE70       0.2260
     57  O        -15.4790   39.6090    9.6530 O.2    70  ILE70      -0.2867
     58  CB       -16.4300   39.9560    6.6650 C.3    70  ILE70       0.0252
     59  CG1      -17.9220   39.8880    6.3190 C.3    70  ILE70       0.0019
     60  CG2      -15.8000   38.5550    7.0400 C.3    70  ILE70       0.0019
     61  CD1      -18.3850   41.0800    5.4260 C.3    70  ILE70       0.0001
     62  N        -22.4220   35.6260    8.5540 N.3    86  LEU86      -0.1231
     63  CA       -21.6120   36.8220    8.4920 C.3    86  LEU86       0.1693
     64  C        -22.5290   38.0220    8.2780 C.2    86  LEU86       0.2592
     65  O        -23.6200   37.8810    7.7350 O.2    86  LEU86      -0.2718
     66  CB       -20.5290   36.6910    7.3790 C.3    86  LEU86       0.0284
     67  CG       -19.7330   35.3830    7.6520 C.3    86  LEU86       0.0019
     68  CD1      -19.6750   34.4330    6.4580 C.3    86  LEU86       0.0001
     69  CD2      -18.3920   35.6260    8.2350 C.3    86  LEU86       0.0001
     70  N        -22.0890   39.1960    8.7390 N.am   87  GLU87      -0.1966
     71  CA       -22.7250   40.4630    8.3680 C.3    87  GLU87       0.1733
     72  C        -22.6920   40.6100    6.8430 C.2    87  GLU87       0.2616
     73  O        -21.8340   40.0420    6.1670 O.2    87  GLU87      -0.2715
     74  CB       -21.9810   41.6530    9.0060 C.3    87  GLU87       0.0429
     75  CG       -20.6580   41.9440    8.2940 C.3    87  GLU87       0.1163
     76  CD       -19.9030   43.1430    8.8280 C.2    87  GLU87       0.3649
     77  OE1      -20.5210   44.1370    9.2880 O.co2  87  GLU87      -0.2457
     78  OE2      -18.6780   43.0900    8.7370 O.co2  87  GLU87      -0.2457
     79  N        -23.6230   41.3740    6.3040 N.am   88  ARG88      -0.1964
     80  CA       -23.6670   41.6160    4.8780 C.3    88  ARG88       0.1714
     81  C        -23.9220   43.1010    4.6150 C.2    88  ARG88       0.2458
     82  O        -25.0390   43.5850    4.8160 O.2    88  ARG88      -0.2730
     83  CB       -24.7430   40.7630    4.1920 C.3    88  ARG88       0.0347
     84  CG       -24.8450   41.0190    2.6860 C.3    88  ARG88       0.0492
     85  CD       -25.7970   40.0450    2.0010 C.3    88  ARG88       0.2205
     86  NE       -27.1410   39.9950    2.6110 N.pl3  88  ARG88      -0.0865
     87  CZ       -28.1860   40.7110    2.2180 C.cat  88  ARG88       0.5346
     88  NH1      -29.3520   40.5570    2.8290 N.pl3  88  ARG88       0.1354
     89  NH2      -28.0760   41.5860    1.2280 N.pl3  88  ARG88       0.1354
     90  N        -22.8700   43.8170    4.1730 N.am   89  PRO89      -0.2727
     91  CA       -22.9820   45.1360    3.5680 C.3    89  PRO89       0.1402
     92  C        -23.9540   45.1810    2.3980 C.2    89  PRO89       0.2269
     93  O        -24.0000   44.2710    1.5600 O.2    89  PRO89      -0.2865
     94  CB       -21.5570   45.4040    3.0440 C.3    89  PRO89       0.0296
     95  CG       -20.6820   44.6490    3.9250 C.3    89  PRO89       0.0237
     96  CD       -21.4590   43.4330    4.3770 C.3    89  PRO89       0.0939
     97  N        -23.4270   46.5260   -2.2240 N.3    92  VAL92      -0.1231
     98  CA       -22.0480   46.0750   -2.2350 C.3    92  VAL92       0.1692
     99  C        -21.6480   45.6490   -3.6500 C.2    92  VAL92       0.2592
    100  O        -22.4780   45.1440   -4.4160 O.2    92  VAL92      -0.2718
    101  CB       -21.8600   44.9180   -1.1910 C.3    92  VAL92       0.0266
    102  CG1      -22.1820   43.5400   -1.8030 C.3    92  VAL92       0.0020
    103  CG2      -20.5250   44.9370   -0.6490 C.3    92  VAL92       0.0020
    104  N        -20.3880   45.8920   -3.9960 N.am   93  GLN93      -0.1966
    105  CA       -19.7390   45.2440   -5.1350 C.3    93  GLN93       0.1733
    106  C        -18.3720   44.8260   -4.6900 C.2    93  GLN93       0.2616
    107  O        -17.7350   45.5560   -3.9170 O.2    93  GLN93      -0.2715
    108  CB       -19.5860   46.2030   -6.3280 C.3    93  GLN93       0.0408
    109  CG       -19.2140   45.4810   -7.6390 C.3    93  GLN93       0.0908
    110  CD       -19.2250   46.3850   -8.8320 C.2    93  GLN93       0.2608
    111  OE1      -18.8290   47.5310   -8.7270 O.2    93  GLN93      -0.2717
    112  NE2      -19.6940   45.8820   -9.9700 N.am   93  GLN93      -0.0878
    113  N        -17.8960   43.6800   -5.1830 N.am   94  ASP94      -0.1971
    114  CA       -16.5410   43.2760   -4.9000 C.3    94  ASP94       0.1709
    115  C        -15.5530   44.1190   -5.7480 C.2    94  ASP94       0.2293
    116  O        -15.9350   44.7280   -6.7800 O.2    94  ASP94      -0.2864
    117  CB       -16.3740   41.7250   -4.9550 C.3    94  ASP94       0.1436
    118  CG       -16.1440   41.1550   -6.3380 C.2    94  ASP94       0.3671
    119  OD1      -15.4320   41.7510   -7.1650 O.co2  94  ASP94      -0.2456
    120  OD2      -16.6240   40.0250   -6.5750 O.co2  94  ASP94      -0.2456
    121  N        -14.8800   43.0450   -9.5840 N.3    97  ASP97      -0.1239
    122  CA       -15.8670   43.5140  -10.5280 C.3    97  ASP97       0.1674
    123  C        -15.8090   45.0380  -10.6850 C.2    97  ASP97       0.2266
    124  O        -16.0820   45.5740  -11.7500 O.2    97  ASP97      -0.2867
    125  CB       -17.2570   43.1120  -10.0610 C.3    97  ASP97       0.1410
    126  CG       -17.5280   41.6320  -10.1940 C.2    97  ASP97       0.3668
    127  OD1      -16.8520   40.9080  -10.9840 O.co2  97  ASP97      -0.2456
    128  OD2      -18.4720   41.2050   -9.5110 O.co2  97  ASP97      -0.2456
    129  N         -6.6110   39.9280   -2.0260 N.3   135  LYS135     -0.1245
    130  CA        -6.8300   40.1640   -3.4480 C.3   135  LYS135      0.1561
    131  C         -8.1500   40.9430   -3.6400 C.2   135  LYS135      0.2260
    132  O         -9.0090   40.9700   -2.7490 O.2   135  LYS135     -0.2867
    133  CB        -6.8790   38.8380   -4.2460 C.3   135  LYS135      0.0271
    134  CG        -7.9000   37.7780   -3.7980 C.3   135  LYS135      0.0035
    135  CD        -7.9210   36.7100   -4.8350 C.3   135  LYS135      0.0206
    136  CE        -8.7140   35.4930   -4.4510 C.3   135  LYS135      0.1093
    137  NZ        -8.6210   34.4460   -5.4930 N.3   135  LYS135     -0.1314
    138  N        -10.7320   40.1890   -5.2840 N.3   137  GLU137     -0.1231
    139  CA       -11.8800   39.2850   -5.1500 C.3   137  GLU137      0.1699
    140  C        -12.3520   39.1440   -3.7020 C.2   137  GLU137      0.2592
    141  O        -13.5280   38.8780   -3.4500 O.2   137  GLU137     -0.2718
    142  CB       -11.5340   37.9030   -5.6990 C.3   137  GLU137      0.0402
    143  CG       -11.0590   37.8740   -7.1650 C.3   137  GLU137      0.1161
    144  CD       -10.8680   36.4690   -7.6820 C.2   137  GLU137      0.3649
    145  OE1      -11.8720   35.7260   -7.7050 O.co2 137  GLU137     -0.2457
    146  OE2       -9.7220   36.1100   -8.0690 O.co2 137  GLU137     -0.2457
    147  N        -11.4240   39.3190   -2.7600 N.am  138  ASN138     -0.1974
    148  CA       -11.7170   39.1980   -1.3400 C.3   138  ASN138      0.1688
    149  C        -11.9330   40.5260   -0.6150 C.2   138  ASN138      0.2292
    150  O        -11.7810   40.6120    0.6160 O.2   138  ASN138     -0.2864
    151  CB       -10.6450   38.3120   -0.6700 C.3   138  ASN138      0.1181
    152  CG       -10.7130   36.8680   -1.1630 C.2   138  ASN138      0.2629
    153  OD1      -11.7610   36.4310   -1.6210 O.2   138  ASN138     -0.2716
    154  ND2       -9.5970   36.1170   -1.0570 N.am  138  ASN138     -0.0877
    155  N        -14.8790   43.6320   -0.3870 N.3   140  LEU140     -0.1245
    156  CA       -16.1870   44.1810   -0.6960 C.3   140  LEU140      0.1561
    157  C        -16.1970   45.6580   -0.4640 C.2   140  LEU140      0.2260
    158  O        -15.6300   46.1320    0.5000 O.2   140  LEU140     -0.2867
    159  CB       -17.2620   43.5380    0.1580 C.3   140  LEU140      0.0270
    160  CG       -17.3560   42.0380    0.0030 C.3   140  LEU140      0.0019
    161  CD1      -18.5210   41.5970    0.8790 C.3   140  LEU140      0.0001
    162  CD2      -17.5110   41.5920   -1.4440 C.3   140  LEU140      0.0001
    163  N        -12.9170   39.8870    3.1060 N.3   151  ILE151     -0.1231
    164  CA       -13.6650   38.6420    3.2380 C.3   151  ILE151      0.1692
    165  C        -12.7450   37.4380    2.9690 C.2   151  ILE151      0.2592
    166  O        -11.5640   37.5800    2.6290 O.2   151  ILE151     -0.2718
    167  CB       -14.9530   38.5990    2.3110 C.3   151  ILE151      0.0266
    168  CG1      -14.5700   38.7870    0.8330 C.3   151  ILE151      0.0019
    169  CG2      -16.0220   39.6210    2.8100 C.3   151  ILE151      0.0020
    170  CD1      -15.6190   38.3580   -0.1600 C.3   151  ILE151      0.0001
    171  N        -13.3140   36.2540    3.1660 N.am  152  ASP152     -0.1974
    172  CA       -12.6900   34.9600    2.9320 C.3   152  ASP152      0.1709
    173  C        -11.3750   34.7090    3.6910 C.2   152  ASP152      0.2293
    174  O        -10.2690   34.6820    3.1110 O.2   152  ASP152     -0.2864
    175  CB       -12.5440   34.6650    1.4270 C.3   152  ASP152      0.1436
    176  CG       -12.2920   33.1700    1.1440 C.2   152  ASP152      0.3671
    177  OD1      -12.2930   32.3720    2.1130 O.co2 152  ASP152     -0.2456
    178  OD2      -12.1040   32.8040   -0.0370 O.co2 152  ASP152     -0.2456
@<TRIPOS>BOND
     1   124   123    2
     2   127   126   ar
     3   123   122    1
     4   122   125    1
     5   122   121    1
     6   126   125    1
     7   126   128   ar
     8   112   110   am
     9   110   111    2
    10   110   109    1
    11   146   144   ar
    12   145   144   ar
    13   144   143    1
    14   109   108    1
    15   119   118   ar
    16   143   142    1
    17   116   115    2
    18   120   118   ar
    19   118   117    1
    20   108   105    1
    21   115   114    1
    22   142   139    1
    23     4     3    2
    24   137   136    1
    25   138   139    1
    26   113   114    1
    27   113   106   am
    28   139   140    1
    29   105   106    1
    30   105   104    1
    31   117   114    1
    32    10    11    1
    33    10     9    1
    34   135   136    1
    35   135   134    1
    36   106   107    2
    37     3     9   am
    38     3     2    1
    39    11    12    2
    40   100    99    2
    41   133   134    1
    42   133   130    1
    43   104    99   am
    44    22    23   ar
    45    22    20   ar
    46     2     1    1
    47     2     5    1
    48   140   141    2
    49   140   147   am
    50    23    21   ar
    51    99    98    1
    52   131   130    1
    53   131   132    2
    54   130   129    1
    55    20    18   ar
    56   147   148    1
    57     5     6    1
    58     8     6    1
    59    21    19   ar
    60    98    97    1
    61    98   101    1
    62    13    14    1
    63   102   101    1
    64     6     7    1
    65    18    19   ar
    66    18    17    1
    67   153   152    2
    68    27    26    2
    69   162   160    1
    70   148   151    1
    71   148   149    1
    72   101   103    1
    73   152   154   am
    74   152   151    1
    75    24    25    1
    76   156   157    1
    77   156   155    1
    78   156   159    1
    79   149   150    2
    80    17    14    1
    81    14    15    1
    82   157   158    2
    83    26    25    1
    84   170   168    1
    85   178   176   ar
    86    15    16    2
    87   160   159    1
    88   160   161    1
    89    25    28    1
    90    28    30    1
    91    28    29    1
    92   168   167    1
    93   176   175    1
    94   176   177   ar
    95    89    87    1
    96   175   172    1
    97    93    92    2
    98    85    86    1
    99    85    84    1
   100    87    86    2
   101    87    88    1
   102   167   169    1
   103   167   164    1
   104    92    91    1
   105   166   165    2
   106    84    83    1
   107   172   171    1
   108   172   173    1
   109   165   171   am
   110   165   164    1
   111    94    91    1
   112    94    95    1
   113   163   164    1
   114   174   173    2
   115    44    43    1
   116    91    90    1
   117    43    42    1
   118    41    42    1
   119    41    40    1
   120    35    32    1
   121    95    96    1
   122    37    40    1
   123    37    38    1
   124    37    36    1
   125    90    96    1
   126    90    81   am
   127    83    80    1
   128    32    33    1
   129    32    31    1
   130    38    39    2
   131    81    82    2
   132    81    80    1
   133    80    79    1
   134    33    34    2
   135    61    59    1
   136    53    51   ar
   137    52    51   ar
   138    73    72    2
   139    79    72   am
   140    59    58    1
   141    68    67    1
   142    51    50    1
   143    58    60    1
   144    58    55    1
   145    72    71    1
   146    66    67    1
   147    66    63    1
   148    67    69    1
   149    54    55    1
   150    65    64    2
   151    55    56    1
   152    50    49    1
   153    64    63    1
   154    64    70   am
   155    75    76    1
   156    75    74    1
   157    71    70    1
   158    71    74    1
   159    49    46    1
   160    63    62    1
   161    78    76   ar
   162    76    77   ar
   163    56    57    2
   164    46    45    1
   165    46    47    1
   166    47    48    2
