@<TRIPOS>MOLECULE
tmp/3cyqC00.pdb
 77 76 0 0 0
SMALL
GASTEIGER

@<TRIPOS>ATOM
      1  N         39.9340  -18.1350   14.7820 N.3    47  ASP47      -0.1239
      2  CA        40.3990  -19.2890   13.9900 C.3    47  ASP47       0.1674
      3  C         39.4120  -20.4610   13.9670 C.2    47  ASP47       0.2266
      4  O         39.7440  -21.5330   13.4830 O.2    47  ASP47      -0.2867
      5  CB        41.7770  -19.7600   14.4760 C.3    47  ASP47       0.1410
      6  CG        41.7230  -20.5780   15.7590 C.2    47  ASP47       0.3668
      7  OD1       42.7650  -21.2070   16.0640 O.co2  47  ASP47      -0.2456
      8  OD2       40.6740  -20.6030   16.4540 O.co2  47  ASP47      -0.2456
      9  N         37.1020  -23.0920   12.8890 N.3    49  PRO49      -0.2102
     10  CA        36.7610  -23.7200   11.6060 C.3    49  PRO49       0.1504
     11  C         35.3880  -23.2790   11.0960 C.2    49  PRO49       0.2575
     12  O         34.4220  -23.2520   11.8530 O.2    49  PRO49      -0.2718
     13  CB        36.7320  -25.2270   11.9230 C.3    49  PRO49       0.0282
     14  CG        37.2390  -25.3930   13.3130 C.3    49  PRO49       0.0208
     15  CD        37.6490  -24.0670   13.8570 C.3    49  PRO49       0.0893
     16  N         35.3080  -22.9420    9.8140 N.am   50  LEU50      -0.1980
     17  CA        34.1090  -22.3370    9.2630 C.3    50  LEU50       0.1596
     18  C         33.0650  -23.4010    9.0110 C.2    50  LEU50       0.2287
     19  O         33.2260  -24.2320    8.1110 O.2    50  LEU50      -0.2864
     20  CB        34.4390  -21.5660    7.9810 C.3    50  LEU50       0.0297
     21  CG        35.2480  -20.2670    8.1150 C.3    50  LEU50       0.0022
     22  CD1       35.5720  -19.7030    6.7420 C.3    50  LEU50       0.0001
     23  CD2       34.5190  -19.2140    8.9370 C.3    50  LEU50       0.0001
     24  N         33.6920  -19.1070    2.7850 N.3    56  LYS56      -0.1231
     25  CA        34.6480  -20.1790    2.5180 C.3    56  LYS56       0.1693
     26  C         35.9730  -19.9150    3.2230 C.2    56  LYS56       0.2593
     27  O         36.7460  -20.8470    3.4500 O.2    56  LYS56      -0.2718
     28  CB        34.8920  -20.3720    1.0000 C.3    56  LYS56       0.0285
     29  CG        33.9200  -21.3320    0.2700 C.3    56  LYS56       0.0035
     30  CD        33.0710  -20.6710   -0.8210 C.3    56  LYS56       0.0206
     31  CE        33.8910  -20.2840   -2.0750 C.3    56  LYS56       0.1093
     32  NZ        34.7000  -19.0140   -1.9520 N.3    56  LYS56      -0.1314
     33  N         36.2440  -18.6560    3.5570 N.am   57  SER57      -0.1938
     34  CA        37.5050  -18.2970    4.1780 C.3    57  SER57       0.2055
     35  C         37.2890  -17.2070    5.2100 C.2    57  SER57       0.2643
     36  O         36.3480  -16.4300    5.1060 O.2    57  SER57      -0.2714
     37  CB        38.5330  -17.8670    3.1220 C.3    57  SER57       0.2130
     38  OG        38.3610  -16.5450    2.6400 O.3    57  SER57      -0.2179
     39  N         38.1840  -17.1810    6.1950 N.am   58  HIS58      -0.1959
     40  CA        38.1980  -16.1800    7.2420 C.3    58  HIS58       0.1787
     41  C         38.4840  -14.8300    6.6390 C.2    58  HIS58       0.2620
     42  O         38.0030  -13.8250    7.1690 O.2    58  HIS58      -0.2715
     43  CB        39.2080  -16.5220    8.3410 C.3    58  HIS58       0.0785
     44  CG        38.7740  -17.6450    9.2390 C.ar   58  HIS58       0.0821
     45  ND1       39.4130  -18.8690    9.2860 N.ar   58  HIS58      -0.2267
     46  CD2       37.7450  -17.7320   10.1190 C.ar   58  HIS58       0.1154
     47  CE1       38.8160  -19.6410   10.1810 C.ar   58  HIS58       0.1986
     48  NE2       37.7940  -18.9830   10.6920 N.ar   58  HIS58      -0.2212
     49  N         39.2530  -14.8090    5.5480 N.am   59  TYR59      -0.1974
     50  CA        39.4980  -13.5730    4.7880 C.3    59  TYR59       0.1639
     51  C         38.2170  -12.9870    4.1970 C.2    59  TYR59       0.2290
     52  O         38.0670  -11.7560    4.1780 O.2    59  TYR59      -0.2864
     53  CB        40.5370  -13.7360    3.6630 C.3    59  TYR59       0.0560
     54  CG        41.9690  -13.7500    4.1440 C.ar   59  TYR59      -0.0198
     55  CD1       42.7120  -14.9210    4.0770 C.ar   59  TYR59      -0.0009
     56  CD2       42.5910  -12.6030    4.6530 C.ar   59  TYR59      -0.0009
     57  CE1       44.0350  -14.9820    4.5110 C.ar   59  TYR59       0.0417
     58  CE2       43.9260  -12.6460    5.0890 C.ar   59  TYR59       0.0417
     59  CZ        44.6450  -13.8520    5.0180 C.ar   59  TYR59       0.1957
     60  OH        45.9700  -13.9880    5.4500 O.3    59  TYR59      -0.2866
     61  N         41.9150  -11.5590    7.9510 N.3    89  GLY89      -0.1210
     62  CA        41.4930  -12.9120    8.2610 C.3    89  GLY89       0.1956
     63  C         41.6040  -13.1960    9.7440 C.2    89  GLY89       0.2613
     64  O         41.2110  -12.3680   10.5850 O.2    89  GLY89      -0.2717
     65  N         42.1340  -14.3780   10.0470 N.am   90  SER90      -0.1938
     66  CA        42.4390  -14.7880   11.4100 C.3    90  SER90       0.2055
     67  C         43.8340  -14.3840   11.8500 C.2    90  SER90       0.2643
     68  O         44.2260  -14.7400   12.9590 O.2    90  SER90      -0.2714
     69  CB        42.2640  -16.3040   11.5840 C.3    90  SER90       0.2130
     70  OG        43.3150  -16.9970   10.9590 O.3    90  SER90      -0.2179
     71  N         44.5640  -13.6360   11.0090 N.am   91  THR91      -0.1950
     72  CA        45.8870  -13.1380   11.3530 C.3    91  THR91       0.1897
     73  C         45.7260  -12.0140   12.3690 C.2    91  THR91       0.2313
     74  O         44.6530  -11.4410   12.4970 O.2    91  THR91      -0.2863
     75  CB        46.7590  -12.6640   10.1120 C.3    91  THR91       0.1794
     76  OG1       46.3160  -11.4010    9.6040 O.3    91  THR91      -0.2208
     77  CG2       46.7410  -13.6390    8.9780 C.3    91  THR91       0.0378
@<TRIPOS>BOND
     1    31    32    1
     2    31    30    1
     3    30    29    1
     4    29    28    1
     5    28    25    1
     6    25    24    1
     7    25    26    1
     8    38    37    1
     9    37    34    1
    10    26    27    2
    11    26    33   am
    12    33    34    1
    13    53    54    1
    14    53    50    1
    15    55    54   ar
    16    55    57   ar
    17    54    56   ar
    18    52    51    2
    19    34    35    1
    20    51    50    1
    21    57    59   ar
    22    56    58   ar
    23    50    49    1
    24    59    58   ar
    25    59    60    1
    26    36    35    2
    27    35    39   am
    28    49    41   am
    29    39    40    1
    30    41    42    2
    31    41    40    1
    32    22    21    1
    33    40    43    1
    34    61    62    1
    35    20    21    1
    36    20    17    1
    37    19    18    2
    38    21    23    1
    39    62    63    1
    40    43    44    1
    41    77    75    1
    42    18    17    1
    43    44    45   ar
    44    44    46   ar
    45    17    16    1
    46    45    47   ar
    47    76    75    1
    48    63    65   am
    49    63    64    2
    50    16    11   am
    51    65    66    1
    52    75    72    1
    53    46    48   ar
    54    47    48   ar
    55    70    69    1
    56    71    72    1
    57    71    67   am
    58    11    10    1
    59    11    12    2
    60    72    73    1
    61    66    69    1
    62    66    67    1
    63    10    13    1
    64    10     9    1
    65    67    68    2
    66    13    14    1
    67    73    74    2
    68     9    15    1
    69    14    15    1
    70     4     3    2
    71     3     2    1
    72     2     5    1
    73     2     1    1
    74     5     6    1
    75     6     7   ar
    76     6     8   ar
