@<TRIPOS>MOLECULE
tmp/3cyyB00.pdb
 99 96 0 0 0
SMALL
GASTEIGER

@<TRIPOS>ATOM
      1  N         13.2260    0.4820    5.0800 N.3     9  LYS9       -0.1245
      2  CA        14.0360    1.4720    5.8040 C.3     9  LYS9        0.1561
      3  C         15.0860    2.1540    4.9260 C.2     9  LYS9        0.2260
      4  O         15.6180    1.5550    3.9840 O.2     9  LYS9       -0.2867
      5  CB        14.6970    0.8490    7.0320 C.3     9  LYS9        0.0271
      6  CG        13.7140    0.1480    7.9280 C.3     9  LYS9        0.0035
      7  CD        14.0860    0.2810    9.3750 C.3     9  LYS9        0.0206
      8  CE        14.9740   -0.8340    9.8290 C.3     9  LYS9        0.1093
      9  NZ        15.0370   -0.7890   11.2990 N.3     9  LYS9       -0.1314
     10  N         16.6650    3.6320   11.6300 N.3    14  GLU14      -0.1231
     11  CA        15.3290    4.1910   11.4300 C.3    14  GLU14       0.1699
     12  C         14.2890    3.1950   11.9530 C.2    14  GLU14       0.2592
     13  O         14.4520    1.9890   11.8010 O.2    14  GLU14      -0.2718
     14  CB        15.1080    4.4810    9.9370 C.3    14  GLU14       0.0402
     15  CG        13.7160    4.9850    9.5630 C.3    14  GLU14       0.1161
     16  CD        13.5590    5.2530    8.0730 C.2    14  GLU14       0.3649
     17  OE1       13.9800    4.4030    7.2610 O.co2  14  GLU14      -0.2457
     18  OE2       13.0040    6.3120    7.7100 O.co2  14  GLU14      -0.2457
     19  N         13.2350    3.6970   12.5880 N.am   15  GLU15      -0.1966
     20  CA        12.1380    2.8300   13.0300 C.3    15  GLU15       0.1733
     21  C         11.0320    2.7400   11.9550 C.2    15  GLU15       0.2616
     22  O         10.9780    3.5740   11.0390 O.2    15  GLU15      -0.2715
     23  CB        11.5910    3.2790   14.4020 C.3    15  GLU15       0.0429
     24  CG        11.0070    4.7040   14.4480 C.3    15  GLU15       0.1163
     25  CD        10.5670    5.1370   15.8520 C.2    15  GLU15       0.3649
     26  OE1        9.3680    4.9580   16.1960 O.co2  15  GLU15      -0.2457
     27  OE2       11.4160    5.6790   16.6020 O.co2  15  GLU15      -0.2457
     28  N         10.1720    1.7180   12.0580 N.am   16  TYR16      -0.1960
     29  CA         9.0000    1.6220   11.1900 C.3    16  TYR16       0.1771
     30  C          7.9150    2.6170   11.5960 C.2    16  TYR16       0.2620
     31  O          7.1320    3.0850   10.7630 O.2    16  TYR16      -0.2715
     32  CB         8.4390    0.1920   11.1870 C.3    16  TYR16       0.0574
     33  CG         9.3420   -0.7890   10.4860 C.ar   16  TYR16      -0.0198
     34  CD1        9.5540   -0.7040    9.1120 C.ar   16  TYR16      -0.0009
     35  CD2       10.0040   -1.7910   11.1990 C.ar   16  TYR16      -0.0009
     36  CE1       10.3960   -1.5810    8.4560 C.ar   16  TYR16       0.0417
     37  CE2       10.8530   -2.6900   10.5520 C.ar   16  TYR16       0.0417
     38  CZ        11.0390   -2.5760    9.1750 C.ar   16  TYR16       0.1957
     39  OH        11.8600   -3.4620    8.5250 O.3    16  TYR16      -0.2866
     40  N          7.8760    2.9310   12.8880 N.am   17  GLY17      -0.1940
     41  CA         6.8980    3.8590   13.4220 C.3    17  GLY17       0.2014
     42  C          5.6410    3.1310   13.8160 C.2    17  GLY17       0.2639
     43  O          4.5570    3.6830   13.7480 O.2    17  GLY17      -0.2714
     44  N          5.7990    1.8930   14.2540 N.am   18  LEU18      -0.1963
     45  CA         4.6590    1.0050   14.5040 C.3    18  LEU18       0.1728
     46  C          4.7090    0.4450   15.9100 C.2    18  LEU18       0.2616
     47  O          5.7280   -0.1230   16.3200 O.2    18  LEU18      -0.2715
     48  CB         4.6750   -0.1460   13.4860 C.3    18  LEU18       0.0311
     49  CG         3.4840   -0.4480   12.5820 C.3    18  LEU18       0.0022
     50  CD1        2.6230    0.7880   12.2750 C.3    18  LEU18       0.0001
     51  CD2        4.0280   -1.0510   11.3050 C.3    18  LEU18       0.0001
     52  N          3.6070    0.6260   16.6420 N.am   19  ARG19      -0.1963
     53  CA         3.4280    0.0490   17.9740 C.3    19  ARG19       0.1729
     54  C          2.4090   -1.0860   17.8970 C.2    19  ARG19       0.2616
     55  O          1.1990   -0.8570   17.7270 O.2    19  ARG19      -0.2715
     56  CB         2.9860    1.1240   18.9830 C.3    19  ARG19       0.0348
     57  CG         2.4980    0.5860   20.3040 C.3    19  ARG19       0.0492
     58  CD         2.2380    1.7090   21.2570 C.3    19  ARG19       0.2205
     59  NE         3.5050    2.1290   21.8310 N.pl3  19  ARG19      -0.0865
     60  CZ         3.7050    3.2680   22.4630 C.cat  19  ARG19       0.5346
     61  NH1        2.7120    4.1410   22.6190 N.pl3  19  ARG19       0.1354
     62  NH2        4.9110    3.5340   22.9290 N.pl3  19  ARG19       0.1354
     63  N          2.9130   -2.3140   17.9930 N.am   20  LEU20      -0.1963
     64  CA         2.0780   -3.4990   17.8530 C.3    20  LEU20       0.1728
     65  C          1.7070   -4.0140   19.2350 C.2    20  LEU20       0.2616
     66  O          2.4710   -3.8640   20.1730 O.2    20  LEU20      -0.2715
     67  CB         2.7910   -4.5830   17.0290 C.3    20  LEU20       0.0311
     68  CG         3.1030   -4.3740   15.5290 C.3    20  LEU20       0.0022
     69  CD1        1.9210   -3.8670   14.7130 C.3    20  LEU20       0.0001
     70  CD2        4.2890   -3.4410   15.3310 C.3    20  LEU20       0.0001
     71  N          0.5250   -4.6140   19.3450 N.am   21  ALA21      -0.1977
     72  CA         0.0450   -5.1960   20.5870 C.3    21  ALA21       0.1597
     73  C         -0.8430   -6.4110   20.2900 C.2    21  ALA21       0.2287
     74  O         -1.3510   -6.5710   19.1750 O.2    21  ALA21      -0.2864
     75  CB        -0.7150   -4.1530   21.3920 C.3    21  ALA21       0.0319
     76  N         -3.9250   -8.9480   33.6660 N.3    54  VAL54      -0.1245
     77  CA        -4.2360   -8.3440   32.3730 C.3    54  VAL54       0.1561
     78  C         -3.5850   -9.1600   31.2550 C.2    54  VAL54       0.2260
     79  O         -2.4200   -9.5520   31.3600 O.2    54  VAL54      -0.2867
     80  CB        -3.8130   -6.8450   32.3360 C.3    54  VAL54       0.0252
     81  CG1       -2.4680   -6.6540   31.6360 C.3    54  VAL54       0.0019
     82  CG2       -4.8790   -5.9980   31.6590 C.3    54  VAL54       0.0019
     83  N         -3.5450   -8.3810   27.7750 N.3    56  GLU56      -0.1231
     84  CA        -2.9780   -7.6520   26.6480 C.3    56  GLU56       0.1699
     85  C         -1.4850   -7.9520   26.5620 C.2    56  GLU56       0.2592
     86  O         -0.7860   -7.9240   27.5730 O.2    56  GLU56      -0.2718
     87  CB        -3.2070   -6.1510   26.8050 C.3    56  GLU56       0.0402
     88  CG        -2.8430   -5.3390   25.5410 C.3    56  GLU56       0.1161
     89  CD        -3.2840   -3.8900   25.6380 C.2    56  GLU56       0.3649
     90  OE1       -2.9190   -3.0890   24.7530 O.co2  56  GLU56      -0.2457
     91  OE2       -4.0020   -3.5460   26.6020 O.co2  56  GLU56      -0.2457
     92  N         -1.0160   -8.2640   25.3530 N.am   57  ASN57      -0.1974
     93  CA         0.3970   -8.5460   25.0830 C.3    57  ASN57       0.1688
     94  C          0.8860   -9.8600   25.6930 C.2    57  ASN57       0.2292
     95  O          2.0680  -10.1860   25.6380 O.2    57  ASN57      -0.2864
     96  CB         1.2830   -7.3580   25.4870 C.3    57  ASN57       0.1181
     97  CG         0.9310   -6.0780   24.7360 C.2    57  ASN57       0.2629
     98  OD1        0.5980   -6.1120   23.5560 O.2    57  ASN57      -0.2716
     99  ND2        1.0310   -4.9430   25.4130 N.am   57  ASN57      -0.0877
@<TRIPOS>BOND
     1     4     3    2
     2     3     2    1
     3     1     2    1
     4     2     5    1
     5     5     6    1
     6    17    16   ar
     7    18    16   ar
     8     6     7    1
     9    16    15    1
    10    36    34   ar
    11    36    38   ar
    12    39    38    1
    13    34    33   ar
    14    38    37   ar
    15     7     8    1
    16    15    14    1
    17     8     9    1
    18    14    11    1
    19    33    32    1
    20    33    35   ar
    21    37    35   ar
    22    31    30    2
    23    22    21    2
    24    32    29    1
    25    29    30    1
    26    29    28    1
    27    51    49    1
    28    11    10    1
    29    11    12    1
    30    30    40   am
    31    13    12    2
    32    12    19   am
    33    21    28   am
    34    21    20    1
    35    50    49    1
    36    49    48    1
    37    19    20    1
    38    40    41    1
    39    20    23    1
    40    41    42    1
    41    48    45    1
    42    43    42    2
    43    42    44   am
    44    44    45    1
    45    23    24    1
    46    24    25    1
    47    45    46    1
    48    69    68    1
    49    70    68    1
    50    68    67    1
    51    25    26   ar
    52    25    27   ar
    53    46    47    2
    54    46    52   am
    55    52    53    1
    56    67    64    1
    57    55    54    2
    58    64    63    1
    59    64    65    1
    60    54    53    1
    61    54    63   am
    62    53    56    1
    63    56    57    1
    64    74    73    2
    65    65    71   am
    66    65    66    2
    67    71    72    1
    68    73    72    1
    69    57    58    1
    70    72    75    1
    71    58    59    1
    72    59    60    2
    73    60    61    1
    74    60    62    1
    75    98    97    2
    76    97    99   am
    77    97    96    1
    78    90    89   ar
    79    93    92    1
    80    93    96    1
    81    93    94    1
    82    92    85   am
    83    88    89    1
    84    88    87    1
    85    89    91   ar
    86    95    94    2
    87    85    84    1
    88    85    86    2
    89    84    87    1
    90    84    83    1
    91    78    79    2
    92    78    77    1
    93    81    80    1
    94    82    80    1
    95    80    77    1
    96    77    76    1
