@<TRIPOS>MOLECULE
tmp/3cyyB01.pdb
 81 74 0 0 0
SMALL
GASTEIGER

@<TRIPOS>ATOM
      1  N         -6.2230  -11.2970   23.3890 N.3    24  ILE24      -0.1245
      2  CA        -6.8250  -12.6210   23.3810 C.3    24  ILE24       0.1561
      3  C         -8.3320  -12.4540   23.2060 C.2    24  ILE24       0.2260
      4  O         -8.9390  -11.6000   23.8410 O.2    24  ILE24      -0.2867
      5  CB        -6.4540  -13.4030   24.6520 C.3    24  ILE24       0.0252
      6  CG1       -4.9250  -13.5890   24.6980 C.3    24  ILE24       0.0019
      7  CG2       -7.1870  -14.7540   24.6990 C.3    24  ILE24       0.0019
      8  CD1       -4.3820  -14.1940   25.9780 C.3    24  ILE24       0.0001
      9  N        -12.8280  -17.0960   20.5590 N.3    27  LYS27      -0.1231
     10  CA       -12.9860  -17.5240   19.1790 C.3    27  LYS27       0.1693
     11  C        -14.2150  -18.4030   18.9770 C.2    27  LYS27       0.2591
     12  O        -14.8690  -18.3330   17.9420 O.2    27  LYS27      -0.2718
     13  CB       -11.7150  -18.2490   18.7330 C.3    27  LYS27       0.0285
     14  CG       -11.6120  -18.5980   17.2370 C.3    27  LYS27       0.0035
     15  CD       -10.1720  -19.0340   16.9790 C.3    27  LYS27       0.0206
     16  CE        -9.9070  -19.4020   15.5520 C.3    27  LYS27       0.1093
     17  NZ        -8.4780  -19.8580   15.4360 N.3    27  LYS27      -0.1314
     18  N        -14.5260  -19.2460   19.9590 N.am   28  GLU28      -0.1979
     19  CA       -15.6630  -20.1530   19.8450 C.3    28  GLU28       0.1602
     20  C        -16.0690  -20.6620   21.2130 C.2    28  GLU28       0.2287
     21  O        -15.2230  -20.9190   22.0660 O.2    28  GLU28      -0.2864
     22  CB       -15.3510  -21.3240   18.9090 C.3    28  GLU28       0.0415
     23  CG       -16.5460  -22.2910   18.7210 C.3    28  GLU28       0.1163
     24  CD       -16.2900  -23.3570   17.6570 C.2    28  GLU28       0.3649
     25  OE1      -15.1340  -23.7960   17.4880 O.co2  28  GLU28      -0.2457
     26  OE2      -17.2690  -23.7640   16.9910 O.co2  28  GLU28      -0.2457
     27  N         -0.4520  -16.7430   24.2270 N.3    60  LEU60      -0.1245
     28  CA        -1.4670  -17.7580   24.4590 C.3    60  LEU60       0.1561
     29  C         -0.8900  -18.8330   25.3690 C.2    60  LEU60       0.2260
     30  O         -1.5890  -19.3740   26.2300 O.2    60  LEU60      -0.2867
     31  CB        -1.8740  -18.3560   23.1210 C.3    60  LEU60       0.0270
     32  CG        -3.3360  -18.4260   22.6900 C.3    60  LEU60       0.0019
     33  CD1       -4.1550  -17.2460   23.1650 C.3    60  LEU60       0.0001
     34  CD2       -3.3890  -18.5890   21.1680 C.3    60  LEU60       0.0001
     35  N         -0.9510  -17.5230   28.8980 N.3    63  ALA63      -0.1231
     36  CA        -2.3540  -17.5290   29.3330 C.3    63  ALA63       0.1694
     37  C         -2.7650  -18.9320   29.7700 C.2    63  ALA63       0.2591
     38  O         -3.5630  -19.0930   30.6880 O.2    63  ALA63      -0.2718
     39  CB        -3.2610  -17.0300   28.2230 C.3    63  ALA63       0.0304
     40  N         -2.2060  -19.9420   29.1090 N.am   64  LYS64      -0.1980
     41  CA        -2.4770  -21.3380   29.4510 C.3    64  LYS64       0.1596
     42  C         -2.0630  -21.6490   30.8880 C.2    64  LYS64       0.2287
     43  O         -2.8250  -22.2690   31.6330 O.2    64  LYS64      -0.2864
     44  CB        -1.7620  -22.2750   28.4780 C.3    64  LYS64       0.0298
     45  CG        -2.0470  -23.7520   28.7220 C.3    64  LYS64       0.0038
     46  CD        -1.0190  -24.6370   28.0540 C.3    64  LYS64       0.0206
     47  CE        -1.2230  -24.6520   26.5470 C.3    64  LYS64       0.1093
     48  NZ        -2.5570  -25.2280   26.1920 N.3    64  LYS64      -0.1314
     49  N         -4.3010  -19.9090   33.3800 N.3    67  ILE67      -0.1231
     50  CA        -5.5900  -20.5880   33.5690 C.3    67  ILE67       0.1692
     51  C         -5.4060  -21.8400   34.4210 C.2    67  ILE67       0.2591
     52  O         -6.1860  -22.0960   35.3410 O.2    67  ILE67      -0.2718
     53  CB        -6.2550  -20.9600   32.2040 C.3    67  ILE67       0.0266
     54  CG1       -6.5870  -19.6810   31.4170 C.3    67  ILE67       0.0019
     55  CG2       -7.5350  -21.7850   32.4350 C.3    67  ILE67       0.0020
     56  CD1       -6.8450  -19.9090   29.9280 C.3    67  ILE67       0.0001
     57  N         -4.3570  -22.6020   34.1050 N.am   68  GLU68      -0.1979
     58  CA        -4.0110  -23.8390   34.8150 C.3    68  GLU68       0.1602
     59  C         -3.6580  -23.6430   36.2900 C.2    68  GLU68       0.2287
     60  O         -3.7400  -24.5860   37.0730 O.2    68  GLU68      -0.2864
     61  CB        -2.8760  -24.5650   34.0940 C.3    68  GLU68       0.0415
     62  CG        -3.3460  -25.2400   32.7740 C.3    68  GLU68       0.1163
     63  CD        -2.1700  -25.7870   31.9830 C.2    68  GLU68       0.3649
     64  OE1       -1.0120  -25.3870   32.2850 O.co2  68  GLU68      -0.2457
     65  OE2       -2.4100  -26.6150   31.0530 O.co2  68  GLU68      -0.2457
     66  N        -12.1950  -20.5070   37.1020 N.3    74  LEU74      -0.1245
     67  CA       -11.6900  -19.5290   36.1290 C.3    74  LEU74       0.1561
     68  C        -12.4550  -18.2130   36.2180 C.2    74  LEU74       0.2260
     69  O        -13.6560  -18.1530   35.9510 O.2    74  LEU74      -0.2867
     70  CB       -11.7550  -20.0770   34.6930 C.3    74  LEU74       0.0270
     71  CG       -11.3550  -19.1840   33.5090 C.3    74  LEU74       0.0019
     72  CD1       -9.9090  -18.7100   33.6000 C.3    74  LEU74       0.0001
     73  CD2      -11.5870  -19.8920   32.1830 C.3    74  LEU74       0.0001
     74  N        -12.6610  -14.2530   34.7860 N.3    76  MET76      -0.1245
     75  CA       -12.3260  -13.4840   33.6020 C.3    76  MET76       0.1570
     76  C        -13.0860  -12.1680   33.5460 C.2    76  MET76       0.2261
     77  O        -14.1740  -12.0060   34.1120 O.2    76  MET76      -0.2867
     78  CB       -12.6320  -14.2540   32.3050 C.3    76  MET76       0.0387
     79  CG       -11.8200  -15.4910   32.0250 C.3    76  MET76       0.0595
     80  SD       -12.3430  -16.2180   30.4420 S.3    76  MET76      -0.1393
     81  CE       -14.0720  -16.4610   30.7460 C.3    76  MET76       0.0692
@<TRIPOS>BOND
     1    17    16    1
     2    16    15    1
     3    15    14    1
     4    26    24   ar
     5    14    13    1
     6    25    24   ar
     7    24    23    1
     8    12    11    2
     9    23    22    1
    10    13    10    1
    11    22    19    1
    12    11    10    1
    13    11    18   am
    14    10     9    1
    15    19    18    1
    16    19    20    1
    17    34    32    1
    18    20    21    2
    19    32    31    1
    20    32    33    1
    21    31    28    1
    22     3     2    1
    23     3     4    2
    24     2     1    1
    25     2     5    1
    26    27    28    1
    27    28    29    1
    28     5     6    1
    29     5     7    1
    30     6     8    1
    31    29    30    2
    32    48    47    1
    33    47    46    1
    34    46    45    1
    35    39    36    1
    36    44    45    1
    37    44    41    1
    38    35    36    1
    39    40    41    1
    40    40    37   am
    41    36    37    1
    42    41    42    1
    43    37    38    2
    44    56    54    1
    45    80    81    1
    46    80    79    1
    47    42    43    2
    48    65    63   ar
    49    54    53    1
    50    63    64   ar
    51    63    62    1
    52    79    78    1
    53    73    71    1
    54    53    55    1
    55    53    50    1
    56    78    75    1
    57    62    61    1
    58    49    50    1
    59    71    72    1
    60    71    70    1
    61    76    75    1
    62    76    77    2
    63    50    51    1
    64    75    74    1
    65    61    58    1
    66    57    51   am
    67    57    58    1
    68    51    52    2
    69    70    67    1
    70    58    59    1
    71    69    68    2
    72    67    68    1
    73    67    66    1
    74    59    60    2
