@<TRIPOS>MOLECULE
tmp/3cyzB00.pdb
 124 114 0 0 0
SMALL
GASTEIGER

@<TRIPOS>ATOM
      1  N         22.0160  -17.7720  -17.3930 N.3    49  LEU49      -0.1245
      2  CA        21.0210  -16.9810  -18.1280 C.3    49  LEU49       0.1561
      3  C         19.6130  -17.1670  -17.6200 C.2    49  LEU49       0.2260
      4  O         18.8470  -16.2060  -17.5690 O.2    49  LEU49      -0.2867
      5  CB        21.0840  -17.3510  -19.6120 C.3    49  LEU49       0.0270
      6  CG        22.3740  -17.0620  -20.3800 C.3    49  LEU49       0.0019
      7  CD1       22.2410  -17.6310  -21.8210 C.3    49  LEU49       0.0001
      8  CD2       22.6730  -15.5840  -20.4090 C.3    49  LEU49       0.0001
      9  N         17.1020   -9.3290  -22.2800 N.3    66  MET66      -0.1245
     10  CA        18.4810   -9.4080  -22.7610 C.3    66  MET66       0.1570
     11  C         18.9820   -8.0240  -23.1630 C.2    66  MET66       0.2261
     12  O         20.0500   -7.5950  -22.7290 O.2    66  MET66      -0.2867
     13  CB        18.6220  -10.3770  -23.9450 C.3    66  MET66       0.0387
     14  CG        20.0530  -10.4610  -24.4720 C.3    66  MET66       0.0595
     15  SD        20.4470  -12.0210  -25.3080 S.3    66  MET66      -0.1393
     16  CE        20.3680  -13.2170  -23.9870 C.3    66  MET66       0.0692
     17  N         19.8950   -5.5390  -20.2970 N.3    69  LEU69      -0.1231
     18  CA        21.2190   -5.6320  -19.6590 C.3    69  LEU69       0.1693
     19  C         22.2020   -4.5430  -20.0850 C.2    69  LEU69       0.2591
     20  O         23.2020   -4.2810  -19.3900 O.2    69  LEU69      -0.2718
     21  CB        21.8920   -6.9570  -20.0250 C.3    69  LEU69       0.0284
     22  CG        21.3040   -8.2500  -19.4950 C.3    69  LEU69       0.0019
     23  CD1       22.0260   -9.4720  -20.1030 C.3    69  LEU69       0.0001
     24  CD2       21.3640   -8.2590  -17.9450 C.3    69  LEU69       0.0001
     25  N         21.9410   -3.9530  -21.2440 N.am   70  LEU70      -0.1980
     26  CA        22.9070   -3.1050  -21.9140 C.3    70  LEU70       0.1596
     27  C         22.5440   -1.6450  -21.8380 C.2    70  LEU70       0.2287
     28  O         21.3600   -1.2880  -21.8650 O.2    70  LEU70      -0.2864
     29  CB        22.9820   -3.5250  -23.3860 C.3    70  LEU70       0.0297
     30  CG        23.5430   -4.9230  -23.6180 C.3    70  LEU70       0.0022
     31  CD1       23.5490   -5.2620  -25.1090 C.3    70  LEU70       0.0001
     32  CD2       24.9410   -5.0570  -23.0310 C.3    70  LEU70       0.0001
     33  N         24.3910    0.9210  -26.6310 N.3    74  LEU74      -0.1245
     34  CA        24.5960   -0.3910  -27.2610 C.3    74  LEU74       0.1561
     35  C         23.3420   -1.0870  -27.7830 C.2    74  LEU74       0.2260
     36  O         23.4360   -2.2070  -28.2750 O.2    74  LEU74      -0.2867
     37  CB        25.3390   -1.3290  -26.3110 C.3    74  LEU74       0.0270
     38  CG        26.8570   -1.1380  -26.1920 C.3    74  LEU74       0.0019
     39  CD1       27.4010   -2.0010  -25.0640 C.3    74  LEU74       0.0001
     40  CD2       27.5280   -1.5220  -27.5040 C.3    74  LEU74       0.0001
     41  N         23.4780   -2.0410  -31.6830 N.3    77  ARG77      -0.1231
     42  CA        24.3730   -3.1700  -31.9610 C.3    77  ARG77       0.1694
     43  C         23.8080   -4.4820  -31.4210 C.2    77  ARG77       0.2591
     44  O         23.7960   -5.5220  -32.0870 O.2    77  ARG77      -0.2718
     45  CB        25.7420   -2.9450  -31.3230 C.3    77  ARG77       0.0321
     46  CG        26.5950   -1.9380  -32.0000 C.3    77  ARG77       0.0489
     47  CD        28.0080   -1.9930  -31.4120 C.3    77  ARG77       0.2205
     48  NE        28.7120   -3.1630  -31.9220 N.pl3  77  ARG77      -0.0865
     49  CZ        29.9280   -3.5590  -31.5500 C.cat  77  ARG77       0.5346
     50  NH1       30.6210   -2.9000  -30.6260 N.pl3  77  ARG77       0.1354
     51  NH2       30.4630   -4.6280  -32.1160 N.pl3  77  ARG77       0.1354
     52  N         23.3350   -4.4290  -30.1860 N.am   78  ALA78      -0.1980
     53  CA        22.7360   -5.5800  -29.5560 C.3    78  ALA78       0.1597
     54  C         21.5550   -6.0970  -30.3770 C.2    78  ALA78       0.2287
     55  O         21.4480   -7.3080  -30.5930 O.2    78  ALA78      -0.2864
     56  CB        22.3160   -5.2480  -28.1260 C.3    78  ALA78       0.0319
     57  N         22.8660   -7.9770  -33.4300 N.3    81  VAL81      -0.1231
     58  CA        23.3360   -9.2950  -33.0260 C.3    81  VAL81       0.1692
     59  C         22.1370  -10.2310  -32.8260 C.2    81  VAL81       0.2591
     60  O         22.1330  -11.3620  -33.3170 O.2    81  VAL81      -0.2718
     61  CB        24.2260   -9.2130  -31.7720 C.3    81  VAL81       0.0266
     62  CG1       24.5860  -10.6030  -31.2440 C.3    81  VAL81       0.0020
     63  CG2       25.5060   -8.4250  -32.0720 C.3    81  VAL81       0.0020
     64  N         21.0820   -9.7380  -32.1780 N.am   82  MET82      -0.1979
     65  CA        19.8810  -10.5640  -31.9610 C.3    82  MET82       0.1605
     66  C         19.1700  -10.9410  -33.2640 C.2    82  MET82       0.2287
     67  O         18.6240  -12.0410  -33.3900 O.2    82  MET82      -0.2864
     68  CB        18.9650   -9.8850  -30.9600 C.3    82  MET82       0.0413
     69  CG        19.6190   -9.8910  -29.6090 C.3    82  MET82       0.0598
     70  SD        18.8660   -8.7550  -28.4680 S.3    82  MET82      -0.1393
     71  CE        17.2950   -9.5670  -28.2490 C.3    82  MET82       0.0692
     72  N         24.1580  -20.0490  -29.2700 N.3   100  LEU100     -0.1245
     73  CA        23.9080  -18.6300  -29.0620 C.3   100  LEU100      0.1561
     74  C         25.2120  -17.8700  -28.7290 C.2   100  LEU100      0.2260
     75  O         25.5040  -16.8580  -29.3460 O.2   100  LEU100     -0.2867
     76  CB        22.8450  -18.4160  -27.9670 C.3   100  LEU100      0.0270
     77  CG        22.6260  -16.9690  -27.5370 C.3   100  LEU100      0.0019
     78  CD1       22.0020  -16.1700  -28.7290 C.3   100  LEU100      0.0001
     79  CD2       21.8300  -16.8930  -26.2170 C.3   100  LEU100      0.0001
     80  N         26.9490  -15.0010  -30.9510 N.3   104  VAL104     -0.1245
     81  CA        27.1570  -13.6690  -30.4060 C.3   104  VAL104      0.1561
     82  C         28.6360  -13.2580  -30.5450 C.2   104  VAL104      0.2260
     83  O         28.9600  -12.1150  -30.9020 O.2   104  VAL104     -0.2867
     84  CB        26.6990  -13.5880  -28.9260 C.3   104  VAL104      0.0252
     85  CG1       27.2810  -12.3170  -28.2430 C.3   104  VAL104      0.0019
     86  CG2       25.1560  -13.6140  -28.8350 C.3   104  VAL104      0.0019
     87  N         29.9700  -10.1510  -33.1020 N.3   108  ALA108     -0.1245
     88  CA        30.5430   -8.9510  -32.5040 C.3   108  ALA108      0.1562
     89  C         31.8930   -9.3600  -31.8960 C.2   108  ALA108      0.2260
     90  O         32.0810   -9.3740  -30.6730 O.2   108  ALA108     -0.2867
     91  CB        29.5900   -8.3900  -31.4490 C.3   108  ALA108      0.0290
     92  N         34.2530   -7.5550  -29.0850 N.3   111  VAL111     -0.1245
     93  CA        33.7690   -7.3510  -27.7280 C.3   111  VAL111      0.1561
     94  C         33.1450   -8.6320  -27.1870 C.2   111  VAL111      0.2260
     95  O         32.6500   -9.4650  -27.9470 O.2   111  VAL111     -0.2867
     96  CB        32.7340   -6.1770  -27.6450 C.3   111  VAL111      0.0252
     97  CG1       33.3110   -4.8730  -28.2940 C.3   111  VAL111      0.0019
     98  CG2       31.4210   -6.5470  -28.2740 C.3   111  VAL111      0.0019
     99  N         30.7170   -9.5650  -23.7630 N.3   113  PHE113     -0.1227
    100  CA        30.0440   -9.1550  -22.5310 C.3   113  PHE113      0.1736
    101  C         29.7540  -10.3660  -21.6770 C.2   113  PHE113      0.2595
    102  O         29.3300  -11.4210  -22.1770 O.2   113  PHE113     -0.2718
    103  CB        28.7710   -8.3880  -22.8480 C.3   113  PHE113      0.0547
    104  CG        29.0210   -7.0750  -23.4910 C.ar  113  PHE113     -0.0202
    105  CD1       29.2630   -5.9510  -22.7240 C.ar  113  PHE113     -0.0042
    106  CD2       29.0560   -6.9610  -24.8720 C.ar  113  PHE113     -0.0042
    107  CE1       29.5190   -4.7400  -23.3200 C.ar  113  PHE113     -0.0003
    108  CE2       29.3020   -5.7380  -25.4760 C.ar  113  PHE113     -0.0003
    109  CZ        29.5450   -4.6350  -24.6970 C.ar  113  PHE113     -0.0000
    110  N         30.0220  -10.2310  -20.3850 N.am  114  VAL114     -0.1966
    111  CA        29.8160  -11.3090  -19.4390 C.3   114  VAL114      0.1727
    112  C         29.0920  -10.7860  -18.2020 C.2   114  VAL114      0.2616
    113  O         29.3850   -9.7040  -17.7140 O.2   114  VAL114     -0.2715
    114  CB        31.1680  -11.9770  -19.0350 C.3   114  VAL114      0.0290
    115  CG1       31.9660  -12.3360  -20.2760 C.3   114  VAL114      0.0023
    116  CG2       31.9970  -11.0610  -18.1930 C.3   114  VAL114      0.0023
    117  N         28.1230  -11.5660  -17.7190 N.am  115  ILE115     -0.1977
    118  CA        27.4240  -11.2720  -16.4690 C.3   115  ILE115      0.1596
    119  C         28.4360  -11.2480  -15.3230 C.2   115  ILE115      0.2287
    120  O         29.3990  -12.0130  -15.3390 O.2   115  ILE115     -0.2864
    121  CB        26.3400  -12.3410  -16.1800 C.3   115  ILE115      0.0276
    122  CG1       25.1940  -12.2230  -17.1960 C.3   115  ILE115      0.0022
    123  CG2       25.8350  -12.2210  -14.7440 C.3   115  ILE115      0.0022
    124  CD1       24.2430  -13.4000  -17.1690 C.3   115  ILE115      0.0001
@<TRIPOS>BOND
     1    57    58    1
     2    67    66    2
     3    60    59    2
     4    66    65    1
     5    87    88    1
     6    58    59    1
     7    58    61    1
     8    59    64   am
     9    88    89    1
    10    88    91    1
    11    64    65    1
    12    51    49    1
    13    44    43    2
    14    63    61    1
    15    46    47    1
    16    46    45    1
    17    65    68    1
    18    42    41    1
    19    42    43    1
    20    42    45    1
    21    48    49    2
    22    48    47    1
    23    89    90    2
    24    61    62    1
    25    49    50    1
    26    43    52   am
    27    68    69    1
    28    80    81    1
    29    83    82    2
    30    55    54    2
    31    82    81    1
    32    81    84    1
    33    54    53    1
    34    52    53    1
    35    69    70    1
    36    53    56    1
    37    75    74    2
    38    72    73    1
    39    92    93    1
    40    73    74    1
    41    73    76    1
    42    84    86    1
    43    84    85    1
    44    78    77    1
    45    70    71    1
    46    97    96    1
    47    36    35    2
    48    98    96    1
    49    76    77    1
    50    95    94    2
    51    35    34    1
    52    93    96    1
    53    93    94    1
    54    77    79    1
    55    40    38    1
    56    34    33    1
    57    34    37    1
    58    37    38    1
    59    38    39    1
    60   108   106   ar
    61   108   109   ar
    62    15    14    1
    63    15    16    1
    64    31    30    1
    65   106   104   ar
    66   109   107   ar
    67    14    13    1
    68    13    10    1
    69    99   100    1
    70    30    29    1
    71    30    32    1
    72   104   103    1
    73   104   105   ar
    74    29    26    1
    75   107   105   ar
    76    11    10    1
    77    11    12    2
    78   103   100    1
    79    10     9    1
    80   100   101    1
    81   102   101    2
    82    26    27    1
    83    26    25    1
    84    28    27    2
    85     7     6    1
    86   101   110   am
    87    25    19   am
    88     8     6    1
    89   110   111    1
    90     6     5    1
    91    17    18    1
    92   115   114    1
    93    23    22    1
    94    19    18    1
    95    19    20    2
    96    21    18    1
    97    21    22    1
    98     5     2    1
    99    22    24    1
   100   111   114    1
   101   111   112    1
   102   114   116    1
   103   112   117   am
   104   112   113    2
   105     2     3    1
   106     2     1    1
   107   117   118    1
   108     3     4    2
   109   122   124    1
   110   122   121    1
   111   118   121    1
   112   118   119    1
   113   121   123    1
   114   120   119    2
