@<TRIPOS>MOLECULE
tmp/3cyzB01.pdb
 144 138 0 0 0
SMALL
GASTEIGER

@<TRIPOS>ATOM
      1  N         26.2120  -17.6640   -9.6980 N.3    13  LYS13      -0.1245
      2  CA        27.2700  -18.4580  -10.3500 C.3    13  LYS13       0.1561
      3  C         27.6580  -19.6690   -9.4940 C.2    13  LYS13       0.2260
      4  O         27.8970  -20.7570  -10.0120 O.2    13  LYS13      -0.2867
      5  CB        28.5050  -17.5680  -10.6510 C.3    13  LYS13       0.0271
      6  CG        28.2270  -16.4590  -11.6290 C.3    13  LYS13       0.0035
      7  CD        29.4540  -15.5350  -11.7970 C.3    13  LYS13       0.0206
      8  CE        29.1830  -14.4830  -12.8760 C.3    13  LYS13       0.1093
      9  NZ        30.3720  -13.5720  -13.0440 N.3    13  LYS13      -0.1314
     10  N         34.7210  -21.6000  -16.1600 N.3    27  ILE27      -0.1245
     11  CA        33.9910  -20.3270  -16.1550 C.3    27  ILE27       0.1561
     12  C         34.9310  -19.2000  -16.6330 C.2    27  ILE27       0.2260
     13  O         34.5410  -18.3070  -17.4100 O.2    27  ILE27      -0.2867
     14  CB        33.4280  -19.9950  -14.7770 C.3    27  ILE27       0.0252
     15  CG1       32.3600  -21.0380  -14.3650 C.3    27  ILE27       0.0019
     16  CG2       32.8540  -18.5570  -14.7900 C.3    27  ILE27       0.0019
     17  CD1       31.7510  -20.8050  -13.0050 C.3    27  ILE27       0.0001
     18  N         35.3030  -19.2580  -20.4940 N.3    30  VAL30      -0.1231
     19  CA        34.1400  -18.6050  -21.1290 C.3    30  VAL30       0.1692
     20  C         34.1910  -17.0810  -20.9650 C.2    30  VAL30       0.2592
     21  O         33.9080  -16.3370  -21.9090 O.2    30  VAL30      -0.2718
     22  CB        32.8140  -19.1460  -20.5750 C.3    30  VAL30       0.0266
     23  CG1       31.6390  -18.2330  -20.9790 C.3    30  VAL30       0.0020
     24  CG2       32.6000  -20.5910  -21.0470 C.3    30  VAL30       0.0020
     25  N         34.5810  -16.6280  -19.7820 N.am   31  ASP31      -0.1974
     26  CA        34.7540  -15.2070  -19.5110 C.3    31  ASP31       0.1709
     27  C         35.7980  -14.5460  -20.4110 C.2    31  ASP31       0.2293
     28  O         35.7370  -13.3270  -20.6050 O.2    31  ASP31      -0.2864
     29  CB        35.1540  -14.9760  -18.0420 C.3    31  ASP31       0.1436
     30  CG        33.9760  -15.0360  -17.0920 C.2    31  ASP31       0.3671
     31  OD1       32.8180  -15.0310  -17.5630 O.co2  31  ASP31      -0.2456
     32  OD2       34.2220  -15.0740  -15.8680 O.co2  31  ASP31      -0.2456
     33  N         26.0170  -24.7810  -17.5300 N.3    44  TYR44      -0.1227
     34  CA        26.2440  -23.6910  -16.5970 C.3    44  TYR44       0.1736
     35  C         25.7860  -22.3750  -17.2340 C.2    44  TYR44       0.2595
     36  O         25.1120  -21.5660  -16.6090 O.2    44  TYR44      -0.2718
     37  CB        27.7400  -23.5910  -16.2570 C.3    44  TYR44       0.0548
     38  CG        28.0840  -22.3010  -15.5980 C.ar   44  TYR44      -0.0200
     39  CD1       27.8940  -22.1330  -14.2280 C.ar   44  TYR44      -0.0009
     40  CD2       28.6020  -21.2310  -16.3390 C.ar   44  TYR44      -0.0009
     41  CE1       28.1610  -20.9470  -13.6240 C.ar   44  TYR44       0.0417
     42  CE2       28.9050  -20.0260  -15.7230 C.ar   44  TYR44       0.0417
     43  CZ        28.7060  -19.8970  -14.3650 C.ar   44  TYR44       0.1957
     44  OH        29.0000  -18.6920  -13.7660 O.3    44  TYR44      -0.2866
     45  N         26.1830  -22.1630  -18.4790 N.am   45  MET45      -0.1979
     46  CA        25.8360  -20.9430  -19.1880 C.3    45  MET45       0.1605
     47  C         24.3230  -20.8220  -19.2650 C.2    45  MET45       0.2287
     48  O         23.7740  -19.7400  -18.9980 O.2    45  MET45      -0.2864
     49  CB        26.4950  -20.9240  -20.5770 C.3    45  MET45       0.0413
     50  CG        28.0340  -20.9420  -20.4950 C.3    45  MET45       0.0598
     51  SD        28.7680  -21.2940  -22.1010 S.3    45  MET45      -0.1393
     52  CE        28.3180  -19.7280  -22.6980 C.3    45  MET45       0.0692
     53  N         22.8780  -19.9300  -15.7740 N.3    48  LEU48      -0.1231
     54  CA        23.1090  -18.5450  -15.3670 C.3    48  LEU48       0.1693
     55  C         22.1610  -17.5930  -16.0880 C.2    48  LEU48       0.2591
     56  O         21.5250  -16.7360  -15.4790 O.2    48  LEU48      -0.2718
     57  CB        24.5780  -18.1600  -15.6100 C.3    48  LEU48       0.0284
     58  CG        25.0360  -16.8300  -15.0100 C.3    48  LEU48       0.0019
     59  CD1       24.8920  -16.7410  -13.5020 C.3    48  LEU48       0.0001
     60  CD2       26.4830  -16.5460  -15.4020 C.3    48  LEU48       0.0001
     61  N         22.0160  -17.7720  -17.3930 N.am   49  LEU49      -0.1980
     62  CA        21.0210  -16.9810  -18.1280 C.3    49  LEU49       0.1596
     63  C         19.6130  -17.1670  -17.6200 C.2    49  LEU49       0.2287
     64  O         18.8470  -16.2060  -17.5690 O.2    49  LEU49      -0.2864
     65  CB        21.0840  -17.3510  -19.6120 C.3    49  LEU49       0.0297
     66  CG        22.3740  -17.0620  -20.3800 C.3    49  LEU49       0.0022
     67  CD1       22.2410  -17.6310  -21.8210 C.3    49  LEU49       0.0001
     68  CD2       22.6730  -15.5840  -20.4090 C.3    49  LEU49       0.0001
     69  N         17.1020   -9.3290  -22.2800 N.3    66  MET66      -0.1245
     70  CA        18.4810   -9.4080  -22.7610 C.3    66  MET66       0.1570
     71  C         18.9820   -8.0240  -23.1630 C.2    66  MET66       0.2261
     72  O         20.0500   -7.5950  -22.7290 O.2    66  MET66      -0.2867
     73  CB        18.6220  -10.3770  -23.9450 C.3    66  MET66       0.0387
     74  CG        20.0530  -10.4610  -24.4720 C.3    66  MET66       0.0595
     75  SD        20.4470  -12.0210  -25.3080 S.3    66  MET66      -0.1393
     76  CE        20.3680  -13.2170  -23.9870 C.3    66  MET66       0.0692
     77  N         22.3000  -22.7280  -25.9530 N.3    97  ILE97      -0.1245
     78  CA        23.0850  -21.6310  -25.3980 C.3    97  ILE97       0.1561
     79  C         24.5110  -21.6100  -25.9400 C.2    97  ILE97       0.2260
     80  O         25.0140  -20.5490  -26.2700 O.2    97  ILE97      -0.2867
     81  CB        23.0200  -21.6170  -23.8460 C.3    97  ILE97       0.0252
     82  CG1       21.5470  -21.4600  -23.4090 C.3    97  ILE97       0.0019
     83  CG2       23.9240  -20.4980  -23.2680 C.3    97  ILE97       0.0019
     84  CD1       20.7590  -20.3010  -24.0580 C.3    97  ILE97       0.0001
     85  N         24.1580  -20.0490  -29.2700 N.3   100  LEU100     -0.1231
     86  CA        23.9080  -18.6300  -29.0620 C.3   100  LEU100      0.1693
     87  C         25.2120  -17.8700  -28.7290 C.2   100  LEU100      0.2591
     88  O         25.5040  -16.8580  -29.3460 O.2   100  LEU100     -0.2718
     89  CB        22.8450  -18.4160  -27.9670 C.3   100  LEU100      0.0284
     90  CG        22.6260  -16.9690  -27.5370 C.3   100  LEU100      0.0019
     91  CD1       22.0020  -16.1700  -28.7290 C.3   100  LEU100      0.0001
     92  CD2       21.8300  -16.8930  -26.2170 C.3   100  LEU100      0.0001
     93  N         26.0130  -18.4000  -27.8110 N.am  101  ALA101     -0.1980
     94  CA        27.2760  -17.7600  -27.4030 C.3   101  ALA101      0.1597
     95  C         28.2320  -17.6690  -28.5650 C.2   101  ALA101      0.2287
     96  O         28.9030  -16.6670  -28.7830 O.2   101  ALA101     -0.2864
     97  CB        27.9270  -18.5470  -26.2260 C.3   101  ALA101      0.0319
     98  N         26.9490  -15.0010  -30.9510 N.3   104  VAL104     -0.1245
     99  CA        27.1570  -13.6690  -30.4060 C.3   104  VAL104      0.1561
    100  C         28.6360  -13.2580  -30.5450 C.2   104  VAL104      0.2260
    101  O         28.9600  -12.1150  -30.9020 O.2   104  VAL104     -0.2867
    102  CB        26.6990  -13.5880  -28.9260 C.3   104  VAL104      0.0252
    103  CG1       27.2810  -12.3170  -28.2430 C.3   104  VAL104      0.0019
    104  CG2       25.1560  -13.6140  -28.8350 C.3   104  VAL104      0.0019
    105  N         33.1890   -8.7950  -25.8690 N.3   112  TRP112     -0.1227
    106  CA        32.5990   -9.9740  -25.2400 C.3   112  TRP112      0.1737
    107  C         32.0410   -9.5500  -23.8840 C.2   112  TRP112      0.2595
    108  O         32.8020   -9.2040  -22.9820 O.2   112  TRP112     -0.2718
    109  CB        33.6540  -11.0790  -25.0870 C.3   112  TRP112      0.0564
    110  CG        33.1110  -12.3540  -24.5150 C.ar  112  TRP112      0.0003
    111  CD1       33.4340  -12.9110  -23.3210 C.ar  112  TRP112      0.0946
    112  CD2       32.1120  -13.1990  -25.0980 C.ar  112  TRP112      0.0152
    113  NE1       32.7210  -14.0730  -23.1280 N.ar  112  TRP112     -0.2442
    114  CE2       31.8990  -14.2740  -24.2070 C.ar  112  TRP112      0.0810
    115  CE3       31.3850  -13.1590  -26.2900 C.ar  112  TRP112      0.0012
    116  CZ2       30.9720  -15.2940  -24.4630 C.ar  112  TRP112      0.0191
    117  CZ3       30.4540  -14.1700  -26.5450 C.ar  112  TRP112      0.0001
    118  CH2       30.2680  -15.2300  -25.6380 C.ar  112  TRP112      0.0015
    119  N         30.7170   -9.5650  -23.7630 N.am  113  PHE113     -0.1962
    120  CA        30.0440   -9.1550  -22.5310 C.3   113  PHE113      0.1771
    121  C         29.7540  -10.3660  -21.6770 C.2   113  PHE113      0.2619
    122  O         29.3300  -11.4210  -22.1770 O.2   113  PHE113     -0.2715
    123  CB        28.7710   -8.3880  -22.8480 C.3   113  PHE113      0.0574
    124  CG        29.0210   -7.0750  -23.4910 C.ar  113  PHE113     -0.0200
    125  CD1       29.2630   -5.9510  -22.7240 C.ar  113  PHE113     -0.0042
    126  CD2       29.0560   -6.9610  -24.8720 C.ar  113  PHE113     -0.0042
    127  CE1       29.5190   -4.7400  -23.3200 C.ar  113  PHE113     -0.0003
    128  CE2       29.3020   -5.7380  -25.4760 C.ar  113  PHE113     -0.0003
    129  CZ        29.5450   -4.6350  -24.6970 C.ar  113  PHE113     -0.0000
    130  N         30.0220  -10.2310  -20.3850 N.am  114  VAL114     -0.1963
    131  CA        29.8160  -11.3090  -19.4390 C.3   114  VAL114      0.1727
    132  C         29.0920  -10.7860  -18.2020 C.2   114  VAL114      0.2616
    133  O         29.3850   -9.7040  -17.7140 O.2   114  VAL114     -0.2715
    134  CB        31.1680  -11.9770  -19.0350 C.3   114  VAL114      0.0290
    135  CG1       31.9660  -12.3360  -20.2760 C.3   114  VAL114      0.0023
    136  CG2       31.9970  -11.0610  -18.1930 C.3   114  VAL114      0.0023
    137  N         28.1230  -11.5660  -17.7190 N.am  115  ILE115     -0.1977
    138  CA        27.4240  -11.2720  -16.4690 C.3   115  ILE115      0.1596
    139  C         28.4360  -11.2480  -15.3230 C.2   115  ILE115      0.2287
    140  O         29.3990  -12.0130  -15.3390 O.2   115  ILE115     -0.2864
    141  CB        26.3400  -12.3410  -16.1800 C.3   115  ILE115      0.0276
    142  CG1       25.1940  -12.2230  -17.1960 C.3   115  ILE115      0.0022
    143  CG2       25.8350  -12.2210  -14.7440 C.3   115  ILE115      0.0022
    144  CD1       24.2430  -13.4000  -17.1690 C.3   115  ILE115      0.0001
@<TRIPOS>BOND
     1    98    99    1
     2   101   100    2
     3   100    99    1
     4    99   102    1
     5    88    87    2
     6    85    86    1
     7    86    87    1
     8    86    89    1
     9   102   104    1
    10   102   103    1
    11    96    95    2
    12    87    93   am
    13    91    90    1
    14    95    94    1
    15    89    90    1
    16    93    94    1
    17    90    92    1
    18    94    97    1
    19   117   115   ar
    20   117   118   ar
    21   115   112   ar
    22    80    79    2
    23    77    78    1
    24    79    78    1
    25   105   106    1
    26   118   116   ar
    27   128   126   ar
    28   128   129   ar
    29    78    81    1
    30    75    74    1
    31    75    76    1
    32   106   109    1
    33   106   107    1
    34   112   110   ar
    35   112   114   ar
    36   109   110    1
    37   126   124   ar
    38   129   127   ar
    39   110   111   ar
    40    74    73    1
    41   116   114   ar
    42   114   113   ar
    43    84    82    1
    44    73    70    1
    45   107   119   am
    46   107   108    2
    47    81    82    1
    48    81    83    1
    49   119   120    1
    50   124   123    1
    51   124   125   ar
    52   111   113   ar
    53   127   125   ar
    54    71    70    1
    55    71    72    2
    56   123   120    1
    57    70    69    1
    58    52    51    1
    59   120   121    1
    60   122   121    2
    61    51    50    1
    62    21    20    2
    63    67    66    1
    64   121   130   am
    65    19    20    1
    66    19    22    1
    67    19    18    1
    68    24    22    1
    69    23    22    1
    70    20    25   am
    71    28    27    2
    72    49    50    1
    73    49    46    1
    74    27    26    1
    75    68    66    1
    76   130   131    1
    77    66    65    1
    78   135   134    1
    79    25    26    1
    80    65    62    1
    81    26    29    1
    82   131   134    1
    83   131   132    1
    84    47    46    1
    85    47    48    2
    86    46    45    1
    87   134   136    1
    88    45    35   am
    89   132   137   am
    90   132   133    2
    91    62    63    1
    92    62    61    1
    93    29    30    1
    94   137   138    1
    95    63    64    2
    96    31    30   ar
    97    33    34    1
    98    13    12    2
    99    61    55   am
   100    35    36    2
   101    35    34    1
   102   142   144    1
   103   142   141    1
   104    30    32   ar
   105    12    11    1
   106    34    37    1
   107   138   141    1
   108   138   139    1
   109    40    42   ar
   110    40    38   ar
   111    37    38    1
   112   141   143    1
   113    10    11    1
   114    11    14    1
   115    55    56    2
   116    55    54    1
   117    53    54    1
   118    42    43   ar
   119    57    54    1
   120    57    58    1
   121    38    39   ar
   122    60    58    1
   123   140   139    2
   124    58    59    1
   125    16    14    1
   126    14    15    1
   127    15    17    1
   128    43    44    1
   129    43    41   ar
   130    39    41   ar
   131     9     8    1
   132     8     7    1
   133     7     6    1
   134     6     5    1
   135     5     2    1
   136     2     1    1
   137     2     3    1
   138     4     3    2
