@<TRIPOS>MOLECULE
tmp/3cz1B01.pdb
 117 107 0 0 0
SMALL
GASTEIGER

@<TRIPOS>ATOM
      1  N         21.4630  -17.7590  -17.5050 N.3    49  LEU49      -0.1245
      2  CA        20.5030  -16.9240  -18.2570 C.3    49  LEU49       0.1561
      3  C         19.0960  -17.0910  -17.7130 C.2    49  LEU49       0.2260
      4  O         18.3270  -16.1310  -17.5860 O.2    49  LEU49      -0.2867
      5  CB        20.5280  -17.3060  -19.7430 C.3    49  LEU49       0.0270
      6  CG        21.7900  -16.9620  -20.5240 C.3    49  LEU49       0.0019
      7  CD1       21.7040  -17.5520  -21.9290 C.3    49  LEU49       0.0001
      8  CD2       22.0180  -15.4600  -20.6480 C.3    49  LEU49       0.0001
      9  N         16.3550  -14.2630  -18.6300 N.3    54  LEU54      -0.1245
     10  CA        16.7350  -13.9570  -20.0130 C.3    54  LEU54       0.1561
     11  C         16.2340  -15.0070  -20.9940 C.2    54  LEU54       0.2260
     12  O         16.0490  -14.7280  -22.1890 O.2    54  LEU54      -0.2867
     13  CB        18.2570  -13.7960  -20.1080 C.3    54  LEU54       0.0270
     14  CG        18.7650  -12.6330  -19.2400 C.3    54  LEU54       0.0019
     15  CD1       20.2530  -12.6920  -18.9390 C.3    54  LEU54       0.0001
     16  CD2       18.4390  -11.3580  -19.9550 C.3    54  LEU54       0.0001
     17  N         16.5380   -9.3240  -22.3160 N.3    66  MET66      -0.1230
     18  CA        17.9150   -9.3430  -22.7900 C.3    66  MET66       0.1702
     19  C         18.4070   -7.9430  -23.1970 C.2    66  MET66       0.2592
     20  O         19.4710   -7.4950  -22.7330 O.2    66  MET66      -0.2718
     21  CB        17.9950  -10.3260  -23.9680 C.3    66  MET66       0.0401
     22  CG        19.3160  -10.3490  -24.7530 C.3    66  MET66       0.0596
     23  SD        19.8900  -12.0070  -25.3010 S.3    66  MET66      -0.1393
     24  CE        19.7160  -13.0660  -23.8560 C.3    66  MET66       0.0692
     25  N         17.6250   -7.2260  -24.0030 N.am   67  LEU67      -0.1980
     26  CA        17.9690   -5.8350  -24.3660 C.3    67  LEU67       0.1596
     27  C         18.0150   -4.9500  -23.1270 C.2    67  LEU67       0.2287
     28  O         18.7930   -4.0130  -23.0410 O.2    67  LEU67      -0.2864
     29  CB        16.9900   -5.2620  -25.3910 C.3    67  LEU67       0.0297
     30  CG        17.0160   -5.8470  -26.7950 C.3    67  LEU67       0.0022
     31  CD1       15.8000   -5.3500  -27.5850 C.3    67  LEU67       0.0001
     32  CD2       18.2930   -5.4520  -27.4660 C.3    67  LEU67       0.0001
     33  N         19.3650   -5.4460  -20.3120 N.3    69  LEU69      -0.1231
     34  CA        20.6500   -5.4720  -19.6330 C.3    69  LEU69       0.1693
     35  C         21.5990   -4.3890  -20.0940 C.2    69  LEU69       0.2591
     36  O         22.6050   -4.1280  -19.4140 O.2    69  LEU69      -0.2718
     37  CB        21.3830   -6.7880  -19.8990 C.3    69  LEU69       0.0284
     38  CG        20.7810   -8.0620  -19.3360 C.3    69  LEU69       0.0019
     39  CD1       21.4970   -9.3110  -19.9200 C.3    69  LEU69       0.0001
     40  CD2       20.8970   -8.0540  -17.8360 C.3    69  LEU69       0.0001
     41  N         21.3350   -3.7920  -21.2580 N.am   70  LEU70      -0.1980
     42  CA        22.3200   -2.9310  -21.9030 C.3    70  LEU70       0.1596
     43  C         21.9620   -1.4680  -21.8620 C.2    70  LEU70       0.2287
     44  O         20.7850   -1.0940  -21.7880 O.2    70  LEU70      -0.2864
     45  CB        22.4570   -3.3610  -23.3590 C.3    70  LEU70       0.0297
     46  CG        22.9870   -4.7630  -23.5800 C.3    70  LEU70       0.0022
     47  CD1       23.0450   -4.9810  -25.0790 C.3    70  LEU70       0.0001
     48  CD2       24.3320   -4.9410  -22.9560 C.3    70  LEU70       0.0001
     49  N         23.7000    1.1480  -26.6560 N.3    74  LEU74      -0.1245
     50  CA        23.9630   -0.1580  -27.2780 C.3    74  LEU74       0.1561
     51  C         22.7150   -0.8860  -27.8090 C.2    74  LEU74       0.2260
     52  O         22.8230   -2.0010  -28.3510 O.2    74  LEU74      -0.2867
     53  CB        24.6960   -1.0880  -26.3080 C.3    74  LEU74       0.0270
     54  CG        26.1850   -0.8200  -26.1000 C.3    74  LEU74       0.0019
     55  CD1       26.7460   -1.6840  -24.9960 C.3    74  LEU74       0.0001
     56  CD2       26.9550   -1.0620  -27.4240 C.3    74  LEU74       0.0001
     57  N         22.7650   -1.7880  -31.7770 N.3    77  ARG77      -0.1231
     58  CA        23.7160   -2.8780  -31.9570 C.3    77  ARG77       0.1694
     59  C         23.2120   -4.2260  -31.4520 C.2    77  ARG77       0.2591
     60  O         23.3670   -5.2460  -32.1240 O.2    77  ARG77      -0.2718
     61  CB        25.0530   -2.5360  -31.2970 C.3    77  ARG77       0.0321
     62  CG        26.2440   -2.5980  -32.2390 C.3    77  ARG77       0.0489
     63  CD        27.4800   -1.9780  -31.6090 C.3    77  ARG77       0.2205
     64  NE        28.6040   -2.9090  -31.5780 N.pl3  77  ARG77      -0.0865
     65  CZ        28.7290   -3.9560  -32.3870 C.cat  77  ARG77       0.5346
     66  NH1       27.7970   -4.2100  -33.2950 N.pl3  77  ARG77       0.1354
     67  NH2       29.7860   -4.7510  -32.2870 N.pl3  77  ARG77       0.1354
     68  N         22.6090   -4.2230  -30.2680 N.am   78  ALA78      -0.1980
     69  CA        22.1000   -5.4490  -29.6690 C.3    78  ALA78       0.1597
     70  C         20.9170   -5.9950  -30.4800 C.2    78  ALA78       0.2287
     71  O         20.8320   -7.2130  -30.7370 O.2    78  ALA78      -0.2864
     72  CB        21.7350   -5.2070  -28.2070 C.3    78  ALA78       0.0319
     73  N         22.2820   -7.8270  -33.4560 N.3    81  VAL81      -0.1231
     74  CA        22.7930   -9.1620  -33.1090 C.3    81  VAL81       0.1692
     75  C         21.5980  -10.1150  -32.8830 C.2    81  VAL81       0.2591
     76  O         21.6040  -11.2520  -33.3800 O.2    81  VAL81      -0.2718
     77  CB        23.7220   -9.1300  -31.8820 C.3    81  VAL81       0.0266
     78  CG1       24.0470  -10.5390  -31.4070 C.3    81  VAL81       0.0020
     79  CG2       24.9820   -8.3420  -32.1720 C.3    81  VAL81       0.0020
     80  N         20.5570   -9.6560  -32.1750 N.am   82  MET82      -0.1979
     81  CA        19.4050  -10.5230  -31.9220 C.3    82  MET82       0.1605
     82  C         18.6590  -10.8640  -33.2040 C.2    82  MET82       0.2287
     83  O         18.0710  -11.9240  -33.3180 O.2    82  MET82      -0.2864
     84  CB        18.4950   -9.8960  -30.8690 C.3    82  MET82       0.0413
     85  CG        19.2120   -9.7300  -29.5520 C.3    82  MET82       0.0598
     86  SD        19.5780  -11.2380  -28.6440 S.3    82  MET82      -0.1393
     87  CE        21.3370  -11.1090  -28.3150 C.3    82  MET82       0.0692
     88  N         26.4840  -14.8670  -31.1170 N.3   104  VAL104     -0.1245
     89  CA        26.7180  -13.5440  -30.5260 C.3   104  VAL104      0.1561
     90  C         28.1960  -13.1880  -30.6290 C.2   104  VAL104      0.2260
     91  O         28.5340  -12.0580  -30.9210 O.2   104  VAL104     -0.2867
     92  CB        26.2380  -13.5120  -29.0400 C.3   104  VAL104      0.0252
     93  CG1       26.8430  -12.3380  -28.2820 C.3   104  VAL104      0.0019
     94  CG2       24.7080  -13.5160  -29.0090 C.3   104  VAL104      0.0019
     95  N         29.5640  -10.0260  -33.2030 N.3   108  ALA108     -0.1245
     96  CA        30.1270   -8.8380  -32.5720 C.3   108  ALA108      0.1562
     97  C         31.4780   -9.2730  -31.9750 C.2   108  ALA108      0.2260
     98  O         31.6590   -9.3280  -30.7660 O.2   108  ALA108     -0.2867
     99  CB        29.1690   -8.2610  -31.4850 C.3   108  ALA108      0.0290
    100  N         33.6710   -7.4000  -29.0300 N.3   111  VAL111     -0.1245
    101  CA        33.2000   -7.1920  -27.6670 C.3   111  VAL111      0.1561
    102  C         32.5920   -8.4890  -27.1630 C.2   111  VAL111      0.2260
    103  O         32.1440   -9.3290  -27.9530 O.2   111  VAL111     -0.2867
    104  CB        32.1760   -6.0690  -27.5880 C.3   111  VAL111      0.0252
    105  CG1       32.8180   -4.7590  -28.0380 C.3   111  VAL111      0.0019
    106  CG2       30.9510   -6.3880  -28.4220 C.3   111  VAL111      0.0019
    107  N         30.1920   -9.5210  -23.7060 N.3   113  PHE113     -0.1241
    108  CA        29.5290   -9.1590  -22.4660 C.3   113  PHE113      0.1605
    109  C         29.3560  -10.3350  -21.5110 C.2   113  PHE113      0.2264
    110  O         28.9800  -11.3750  -21.9240 O.2   113  PHE113     -0.2867
    111  CB        28.2090   -8.4910  -22.7780 C.3   113  PHE113      0.0534
    112  CG        28.3650   -7.1250  -23.2980 C.ar  113  PHE113     -0.0203
    113  CD1       28.5520   -6.0700  -22.4380 C.ar  113  PHE113     -0.0042
    114  CD2       28.4290   -6.9040  -24.6300 C.ar  113  PHE113     -0.0042
    115  CE1       28.7470   -4.8240  -22.9190 C.ar  113  PHE113     -0.0003
    116  CE2       28.6090   -5.6620  -25.1010 C.ar  113  PHE113     -0.0003
    117  CZ        28.8050   -4.6280  -24.2370 C.ar  113  PHE113     -0.0000
@<TRIPOS>BOND
     1    73    74    1
     2    76    75    2
     3    83    82    2
     4    66    65    1
     5    82    81    1
     6    95    96    1
     7    74    75    1
     8    74    77    1
     9    75    80   am
    10    96    97    1
    11    96    99    1
    12    65    67    1
    13    65    64    2
    14    62    63    1
    15    62    61    1
    16    80    81    1
    17    79    77    1
    18    60    59    2
    19    97    98    2
    20    58    57    1
    21    58    59    1
    22    58    61    1
    23    81    84    1
    24    77    78    1
    25    63    64    1
    26    59    68   am
    27    88    89    1
    28    91    90    2
    29    84    85    1
    30    71    70    2
    31    90    89    1
    32    89    92    1
    33    70    69    1
    34    68    69    1
    35    69    72    1
    36    85    86    1
    37    92    94    1
    38    92    93    1
    39   100   101    1
    40    86    87    1
    41   106   104    1
    42    52    51    2
    43   105   104    1
    44   103   102    2
    45    51    50    1
    46   101   104    1
    47   101   102    1
    48    31    30    1
    49    32    30    1
    50    56    54    1
    51    50    49    1
    52    50    53    1
    53    30    29    1
    54    53    54    1
    55    54    55    1
    56    29    26    1
    57    23    22    1
    58    23    24    1
    59   116   114   ar
    60   116   117   ar
    61    47    46    1
    62    22    21    1
    63   114   112   ar
    64    26    25    1
    65    26    27    1
    66   117   115   ar
    67    25    19   am
    68    21    18    1
    69   107   108    1
    70    46    45    1
    71    46    48    1
    72    45    42    1
    73   112   111    1
    74   112   113   ar
    75    19    18    1
    76    19    20    2
    77    27    28    2
    78   115   113   ar
    79    18    17    1
    80   111   108    1
    81   108   109    1
    82    12    11    2
    83     7     6    1
    84   110   109    2
    85    42    43    1
    86    42    41    1
    87    43    44    2
    88    41    35   am
    89    11    10    1
    90     8     6    1
    91     6     5    1
    92    33    34    1
    93    13    10    1
    94    13    14    1
    95    35    34    1
    96    35    36    2
    97    10     9    1
    98    16    14    1
    99    39    38    1
   100    37    34    1
   101    37    38    1
   102     5     2    1
   103    38    40    1
   104    14    15    1
   105     2     3    1
   106     2     1    1
   107     3     4    2
