@<TRIPOS>MOLECULE
tmp/3cz6B01.pdb
 108 106 0 0 0
SMALL
GASTEIGER

@<TRIPOS>ATOM
      1  N          2.7450   17.2160    3.2270 N.3    76  PHE76      -0.1241
      2  CA         3.9150   18.0820    3.0690 C.3    76  PHE76       0.1605
      3  C          4.3550   18.3860    4.5080 C.2    76  PHE76       0.2264
      4  O          5.5350   18.2910    4.8380 O.2    76  PHE76      -0.2867
      5  CB         3.5370   19.3680    2.3120 C.3    76  PHE76       0.0534
      6  CG         4.7040   20.2900    2.0330 C.ar   76  PHE76      -0.0203
      7  CD1        5.9970   19.7910    1.8770 C.ar   76  PHE76      -0.0042
      8  CD2        4.4960   21.6610    1.8830 C.ar   76  PHE76      -0.0042
      9  CE1        7.0710   20.6480    1.5770 C.ar   76  PHE76      -0.0003
     10  CE2        5.5560   22.5220    1.5830 C.ar   76  PHE76      -0.0003
     11  CZ         6.8460   22.0150    1.4300 C.ar   76  PHE76      -0.0000
     12  N          6.1290   15.4270    5.8380 N.3    79  SER79      -0.1202
     13  CA         7.4760   15.3180    5.2960 C.3    79  SER79       0.2020
     14  C          8.4380   16.3130    5.9410 C.2    79  SER79       0.2618
     15  O          9.6040   15.9910    6.1750 O.2    79  SER79      -0.2717
     16  CB         7.4490   15.5300    3.7850 C.3    79  SER79       0.2103
     17  OG         6.7890   14.4580    3.1360 O.3    79  SER79      -0.2182
     18  N          7.9510   17.5200    6.2180 N.am   80  ILE80      -0.1979
     19  CA         8.7770   18.5540    6.8410 C.3    80  ILE80       0.1595
     20  C          9.1550   18.1080    8.2450 C.2    80  ILE80       0.2287
     21  O         10.3120   18.2040    8.6520 O.2    80  ILE80      -0.2864
     22  CB         8.0200   19.9070    6.9470 C.3    80  ILE80       0.0276
     23  CG1        7.5550   20.3630    5.5620 C.3    80  ILE80       0.0022
     24  CG2        8.8980   20.9510    7.6300 C.3    80  ILE80       0.0022
     25  CD1        8.5090   20.0500    4.4510 C.3    80  ILE80       0.0001
     26  N         11.9660   15.6700    8.1630 N.3    83  CYS83      -0.1235
     27  CA        13.2770   16.2290    7.8880 C.3    83  CYS83       0.1677
     28  C         13.7790   17.1530    9.0060 C.2    83  CYS83       0.2270
     29  O         14.9580   17.5090    9.0410 O.2    83  CYS83      -0.2867
     30  CB        13.2620   16.9140    6.5160 C.3    83  CYS83       0.0956
     31  SG        13.2900   18.6890    6.4720 S.3    83  CYS83      -0.0801
     32  N         12.0220   26.7800    8.1910 N.3    93  TYR93      -0.1241
     33  CA        11.9060   25.9490    6.9880 C.3    93  TYR93       0.1605
     34  C         11.1560   26.7500    5.9300 C.2    93  TYR93       0.2264
     35  O         11.5920   26.8500    4.7820 O.2    93  TYR93      -0.2867
     36  CB        11.1370   24.6470    7.2610 C.3    93  TYR93       0.0534
     37  CG        11.1230   23.6970    6.0680 C.ar   93  TYR93      -0.0201
     38  CD1       12.0210   22.6300    5.9890 C.ar   93  TYR93      -0.0009
     39  CD2       10.2400   23.8920    5.0020 C.ar   93  TYR93      -0.0009
     40  CE1       12.0380   21.7780    4.8770 C.ar   93  TYR93       0.0417
     41  CE2       10.2540   23.0470    3.8800 C.ar   93  TYR93       0.0417
     42  CZ        11.1560   21.9940    3.8290 C.ar   93  TYR93       0.1957
     43  OH        11.1800   21.1600    2.7330 O.3    93  TYR93      -0.2866
     44  N         13.0590   23.9530   -2.3560 N.3   102  ASN102     -0.1226
     45  CA        12.4500   23.0450   -1.3980 C.3   102  ASN102      0.1770
     46  C         13.1500   21.6850   -1.4490 C.2   102  ASN102      0.2439
     47  O         13.1160   20.9920   -2.4650 O.2   102  ASN102     -0.2733
     48  CB        10.9520   22.9240   -1.7330 C.3   102  ASN102      0.1168
     49  CG        10.2130   21.9580   -0.8290 C.2   102  ASN102      0.2627
     50  OD1       10.4550   21.9040    0.3700 O.2   102  ASN102     -0.2716
     51  ND2        9.2870   21.2000   -1.4060 N.am  102  ASN102     -0.0877
     52  N         13.8090   21.2930   -0.3480 N.am  103  PRO103     -0.2729
     53  CA        13.9190   22.0340    0.9140 C.3   103  PRO103      0.1401
     54  C         15.0790   23.0200    0.8610 C.2   103  PRO103      0.2269
     55  O         15.8730   22.9960   -0.0790 O.2   103  PRO103     -0.2865
     56  CB        14.2000   20.9310    1.9180 C.3   103  PRO103      0.0296
     57  CG        15.1690   20.0720    1.1350 C.3   103  PRO103      0.0237
     58  CD        14.5160   20.0000   -0.2500 C.3   103  PRO103      0.0939
     59  N         17.3410   18.7390    7.7290 N.3   111  TRP111     -0.1227
     60  CA        18.0980   17.6280    7.1530 C.3   111  TRP111      0.1737
     61  C         17.7400   17.3170    5.7030 C.2   111  TRP111      0.2596
     62  O         16.6290   16.8690    5.4070 O.2   111  TRP111     -0.2718
     63  CB        17.9070   16.3680    8.0030 C.3   111  TRP111      0.0564
     64  CG        18.5140   16.4730    9.3740 C.ar  111  TRP111      0.0003
     65  CD1       17.9700   17.0790   10.4750 C.ar  111  TRP111      0.0946
     66  CD2       19.8080   16.0070    9.7710 C.ar  111  TRP111      0.0152
     67  NE1       18.8500   17.0190   11.5320 N.ar  111  TRP111     -0.2442
     68  CE2       19.9850   16.3650   11.1280 C.ar  111  TRP111      0.0810
     69  CE3       20.8380   15.3200    9.1110 C.ar  111  TRP111      0.0012
     70  CZ2       21.1550   16.0620   11.8380 C.ar  111  TRP111      0.0191
     71  CZ3       22.0030   15.0180    9.8190 C.ar  111  TRP111      0.0001
     72  CH2       22.1490   15.3880   11.1680 C.ar  111  TRP111      0.0015
     73  N         18.6930   17.5480    4.8030 N.am  112  THR112     -0.1939
     74  CA        18.4900   17.2930    3.3800 C.3   112  THR112      0.2028
     75  C         18.8820   15.8660    3.0170 C.2   112  THR112      0.2642
     76  O         19.4690   15.1440    3.8260 O.2   112  THR112     -0.2714
     77  CB        19.3400   18.2410    2.5070 C.3   112  THR112      0.1808
     78  OG1       20.7310   18.0130    2.7720 O.3   112  THR112     -0.2208
     79  CG2       18.9980   19.7020    2.8040 C.3   112  THR112      0.0379
     80  N         18.5460   15.4670    1.7930 N.am  113  HIS113     -0.1973
     81  CA        18.8790   14.1350    1.3010 C.3   113  HIS113      0.1656
     82  C         20.3900   13.9380    1.4070 C.2   113  HIS113      0.2291
     83  O         20.8580   12.8960    1.8670 O.2   113  HIS113     -0.2864
     84  CB        18.4150   13.9830   -0.1570 C.3   113  HIS113      0.0771
     85  CG        18.8490   12.7020   -0.8030 C.ar  113  HIS113      0.0820
     86  ND1       20.1300   12.5010   -1.2720 N.ar  113  HIS113     -0.2267
     87  CD2       18.1770   11.5500   -1.0400 C.ar  113  HIS113      0.1154
     88  CE1       20.2280   11.2800   -1.7690 C.ar  113  HIS113      0.1986
     89  NE2       19.0570   10.6830   -1.6400 N.ar  113  HIS113     -0.2212
     90  N         21.5500   13.3670    5.0460 N.3   116  ASP116     -0.1239
     91  CA        21.3070   12.0160    5.5280 C.3   116  ASP116      0.1674
     92  C         22.2760   11.0070    4.9300 C.2   116  ASP116      0.2266
     93  O         22.6290   10.0320    5.5860 O.2   116  ASP116     -0.2867
     94  CB        19.8560   11.5980    5.2660 C.3   116  ASP116      0.1410
     95  CG        18.8760   12.3020    6.1930 C.2   116  ASP116      0.3668
     96  OD1       19.3010   12.7370    7.2880 O.co2 116  ASP116     -0.2456
     97  OD2       17.6810   12.4080    5.8410 O.co2 116  ASP116     -0.2456
     98  N         18.9740   12.7230   15.3300 N.3   140  ARG140     -0.1245
     99  CA        18.7350   12.1920   13.9890 C.3   140  ARG140      0.1563
    100  C         19.0090   10.6850   13.9390 C.2   140  ARG140      0.2260
    101  O         18.1990    9.9220   13.4110 O.2   140  ARG140     -0.2867
    102  CB        19.6250   12.9170   12.9680 C.3   140  ARG140      0.0307
    103  CG        19.2590   12.6760   11.5010 C.3   140  ARG140      0.0489
    104  CD        17.9280   13.3230   11.1630 C.3   140  ARG140      0.2205
    105  NE        17.5310   13.1520    9.7650 N.pl3 140  ARG140     -0.0865
    106  CZ        16.3220   13.4620    9.3090 C.cat 140  ARG140      0.5346
    107  NH1       15.4200   13.9540   10.1460 N.pl3 140  ARG140      0.1354
    108  NH2       16.0060   13.2700    8.0340 N.pl3 140  ARG140      0.1354
@<TRIPOS>BOND
     1    47    46    2
     2    44    45    1
     3    88    89   ar
     4    88    86   ar
     5    48    45    1
     6    48    49    1
     7    89    87   ar
     8    46    45    1
     9    46    52   am
    10    51    49   am
    11    86    85   ar
    12    87    85   ar
    13    49    50    2
    14    85    84    1
    15    52    58    1
    16    52    53    1
    17    58    57    1
    18    84    81    1
    19    55    54    2
    20    54    53    1
    21    53    56    1
    22    57    56    1
    23    81    82    1
    24    81    80    1
    25    82    83    2
    26    11     9   ar
    27    11    10   ar
    28     9     7   ar
    29    10     8   ar
    30    80    75   am
    31     7     6   ar
    32     8     6   ar
    33     6     5    1
    34     5     2    1
    35    77    78    1
    36    77    79    1
    37    77    74    1
    38    43    42    1
    39    75    74    1
    40    75    76    2
    41     2     1    1
    42     2     3    1
    43    17    16    1
    44    74    73    1
    45    16    13    1
    46    42    41   ar
    47    42    40   ar
    48    41    39   ar
    49    25    23    1
    50     3     4    2
    51    35    34    2
    52    73    61   am
    53    40    38   ar
    54    92    91    1
    55    92    93    2
    56    39    37   ar
    57    90    91    1
    58    94    91    1
    59    94    95    1
    60    13    12    1
    61    13    14    1
    62    62    61    2
    63    23    22    1
    64    61    60    1
    65    97    95   ar
    66    34    33    1
    67    14    15    2
    68    14    18   am
    69    38    37   ar
    70    37    36    1
    71    95    96   ar
    72    18    19    1
    73    31    30    1
    74    30    27    1
    75    19    22    1
    76    19    20    1
    77    22    24    1
    78    33    36    1
    79    33    32    1
    80    60    59    1
    81    60    63    1
    82    27    26    1
    83    27    28    1
    84    63    64    1
    85   108   106    1
    86    20    21    2
    87    28    29    2
    88    69    66   ar
    89    69    71   ar
    90   106   105    2
    91   106   107    1
    92    64    66   ar
    93    64    65   ar
    94   105   104    1
    95    66    68   ar
    96    71    72   ar
    97    65    67   ar
    98    68    67   ar
    99    68    70   ar
   100   104   103    1
   101    72    70   ar
   102   103   102    1
   103   102    99    1
   104   101   100    2
   105   100    99    1
   106    99    98    1
