@<TRIPOS>MOLECULE
tmp/3cz9A00.pdb
 88 80 0 0 0
SMALL
GASTEIGER

@<TRIPOS>ATOM
      1  N         29.8280   21.1920   36.0310 N.3    75  ASN75      -0.1225
      2  CA        30.8900   20.2900   35.5630 C.3    75  ASN75       0.1785
      3  C         30.3830   18.9040   35.2080 C.2    75  ASN75       0.2597
      4  O         30.7890   18.3420   34.1830 O.2    75  ASN75      -0.2718
      5  CB        31.9760   20.1690   36.6050 C.3    75  ASN75       0.1169
      6  CG        32.9010   21.3440   36.6530 C.2    75  ASN75       0.2627
      7  OD1       33.0140   22.0850   35.7180 O.2    75  ASN75      -0.2716
      8  ND2       33.5700   21.5240   37.7410 N.am   75  ASN75      -0.0877
      9  N         29.5360   18.3130   36.0460 N.am   76  LEU76      -0.1980
     10  CA        29.1110   16.9290   35.7620 C.3    76  LEU76       0.1596
     11  C         28.1700   16.9060   34.5870 C.2    76  LEU76       0.2287
     12  O         28.1760   15.9750   33.7910 O.2    76  LEU76      -0.2864
     13  CB        28.4860   16.2780   37.0210 C.3    76  LEU76       0.0297
     14  CG        29.4620   15.6840   38.0330 C.3    76  LEU76       0.0022
     15  CD1       30.4220   16.7190   38.5640 C.3    76  LEU76       0.0001
     16  CD2       28.7550   15.0480   39.1820 C.3    76  LEU76       0.0001
     17  N         28.3160   19.0320   32.0080 N.3    78  ALA78      -0.1231
     18  CA        29.1900   19.2170   30.8640 C.3    78  ALA78       0.1694
     19  C         29.9260   17.9300   30.5100 C.2    78  ALA78       0.2591
     20  O         30.1100   17.6240   29.3330 O.2    78  ALA78      -0.2718
     21  CB        30.1790   20.3700   31.0850 C.3    78  ALA78       0.0304
     22  N         30.3100   17.1700   31.5330 N.am   79  GLN79      -0.1979
     23  CA        30.9660   15.9230   31.2120 C.3    79  GLN79       0.1601
     24  C         30.0030   14.9270   30.5790 C.2    79  GLN79       0.2287
     25  O         30.3240   14.1940   29.6210 O.2    79  GLN79      -0.2864
     26  CB        31.6530   15.3460   32.4670 C.3    79  GLN79       0.0394
     27  CG        32.4530   14.0840   32.2320 C.3    79  GLN79       0.0908
     28  CD        33.7190   14.2090   31.3940 C.2    79  GLN79       0.2608
     29  OE1       34.8430   14.1050   31.8910 O.2    79  GLN79      -0.2717
     30  NE2       33.5150   14.4210   30.1170 N.am   79  GLN79      -0.0878
     31  N         29.7560   15.9310   27.0740 N.3    82  SER82      -0.1202
     32  CA        30.9820   15.6190   26.3980 C.3    82  SER82       0.2020
     33  C         31.1410   14.1550   26.0430 C.2    82  SER82       0.2618
     34  O         31.8670   13.8370   25.0860 O.2    82  SER82      -0.2717
     35  CB        32.1510   16.0070   27.2850 C.3    82  SER82       0.2103
     36  OG        32.2230   17.4180   27.4730 O.3    82  SER82      -0.2182
     37  N         30.5010   13.2740   26.7910 N.am   83  GLU83      -0.1979
     38  CA        30.6080   11.8130   26.6170 C.3    83  GLU83       0.1602
     39  C         29.5490   11.2990   25.6890 C.2    83  GLU83       0.2287
     40  O         29.5730   10.1100   25.3210 O.2    83  GLU83      -0.2864
     41  CB        30.5380   11.1330   27.9820 C.3    83  GLU83       0.0415
     42  CG        31.7920   11.3780   28.7910 C.3    83  GLU83       0.1163
     43  CD        31.8370   10.7980   30.1780 C.2    83  GLU83       0.3649
     44  OE1       30.7810   10.3830   30.7220 O.co2  83  GLU83      -0.2457
     45  OE2       32.9280   10.7270   30.7810 O.co2  83  GLU83      -0.2457
     46  N         27.4470   14.8210   20.1970 N.3    88  LYS88      -0.1245
     47  CA        28.4410   15.0210   19.1470 C.3    88  LYS88       0.1561
     48  C         27.7530   15.2460   17.7960 C.2    88  LYS88       0.2260
     49  O         28.0650   16.1970   17.0600 O.2    88  LYS88      -0.2867
     50  CB        29.3810   13.8150   19.0700 C.3    88  LYS88       0.0271
     51  CG        30.5600   14.0350   18.1110 C.3    88  LYS88       0.0035
     52  CD        31.5100   12.8330   18.1200 C.3    88  LYS88       0.0206
     53  CE        32.0460   12.3250   19.4670 C.3    88  LYS88       0.1093
     54  NZ        32.9670   13.2270   20.2840 N.3    88  LYS88      -0.1314
     55  N         31.0760   25.6700   32.5710 N.3   106  ALA106     -0.1245
     56  CA        31.8880   24.5590   31.9890 C.3   106  ALA106      0.1562
     57  C         31.2780   24.0560   30.6760 C.2   106  ALA106      0.2260
     58  O         31.9190   23.2120   29.9860 O.2   106  ALA106     -0.2867
     59  CB        32.0650   23.3510   32.8880 C.3   106  ALA106      0.0290
     60  N         33.3490   23.3280   27.4640 N.3   109  THR109     -0.1218
     61  CA        34.2630   22.1970   27.4050 C.3   109  THR109      0.1862
     62  C         33.6810   21.0270   26.6200 C.2   109  THR109      0.2287
     63  O         34.4570   20.2040   26.1200 O.2   109  THR109     -0.2866
     64  CB        34.7520   21.7580   28.7810 C.3   109  THR109      0.1770
     65  OG1       33.6750   21.2170   29.5530 O.3   109  THR109     -0.2211
     66  CG2       35.4410   22.8960   29.5080 C.3   109  THR109      0.0375
     67  N         34.9780   21.4440   23.1440 N.3   112  LEU112     -0.1231
     68  CA        36.3070   20.8500   23.0130 C.3   112  LEU112      0.1693
     69  C         36.2010   19.3690   22.8000 C.2   112  LEU112      0.2591
     70  O         36.8450   18.7920   21.8920 O.2   112  LEU112     -0.2718
     71  CB        37.1700   21.1630   24.2390 C.3   112  LEU112      0.0284
     72  CG        38.5200   20.5020   24.2430 C.3   112  LEU112      0.0019
     73  CD1       39.4040   20.8510   23.0520 C.3   112  LEU112      0.0001
     74  CD2       39.2490   20.8100   25.5540 C.3   112  LEU112      0.0001
     75  N         35.4230   18.6800   23.6220 N.am  113  ALA113     -0.1980
     76  CA        35.3020   17.2250   23.5580 C.3   113  ALA113      0.1597
     77  C         34.8670   16.7610   22.1710 C.2   113  ALA113      0.2287
     78  O         35.2910   15.7000   21.7280 O.2   113  ALA113     -0.2864
     79  CB        34.3190   16.7190   24.5970 C.3   113  ALA113      0.0319
     80  N         40.9230   23.4070   31.2880 N.3   131  LYS131     -0.1245
     81  CA        40.3360   22.2880   30.5360 C.3   131  LYS131      0.1561
     82  C         40.0430   22.7230   29.1010 C.2   131  LYS131      0.2260
     83  O         40.3990   22.0420   28.1480 O.2   131  LYS131     -0.2867
     84  CB        39.0790   21.7780   31.2280 C.3   131  LYS131      0.0271
     85  CG        38.3740   20.6680   30.5220 C.3   131  LYS131      0.0035
     86  CD        37.2440   20.1070   31.4120 C.3   131  LYS131      0.0206
     87  CE        37.7620   18.9750   32.2220 C.3   131  LYS131      0.1093
     88  NZ        37.5820   17.6610   31.5230 N.3   131  LYS131     -0.1314
@<TRIPOS>BOND
     1    49    48    2
     2    48    47    1
     3    51    52    1
     4    51    50    1
     5    52    53    1
     6    50    47    1
     7    47    46    1
     8    53    54    1
     9    78    77    2
    10    70    69    2
    11    77    76    1
    12    69    68    1
    13    69    75   am
    14    68    67    1
    15    68    71    1
    16    73    72    1
    17    76    75    1
    18    76    79    1
    19    71    72    1
    20    72    74    1
    21    34    33    2
    22    40    39    2
    23    39    38    1
    24    33    32    1
    25    33    37   am
    26    63    62    2
    27    32    31    1
    28    32    35    1
    29    38    37    1
    30    38    41    1
    31    62    61    1
    32    35    36    1
    33    61    60    1
    34    61    64    1
    35    41    42    1
    36    83    82    2
    37    64    66    1
    38    64    65    1
    39    42    43    1
    40    82    81    1
    41    20    19    2
    42    25    24    2
    43    58    57    2
    44    30    28   am
    45    43    44   ar
    46    43    45   ar
    47    19    18    1
    48    19    22   am
    49    85    84    1
    50    85    86    1
    51    81    84    1
    52    81    80    1
    53    24    23    1
    54    57    56    1
    55    18    21    1
    56    18    17    1
    57    23    22    1
    58    23    26    1
    59    28    29    2
    60    28    27    1
    61    86    87    1
    62    88    87    1
    63    56    55    1
    64    56    59    1
    65    27    26    1
    66    12    11    2
    67     4     3    2
    68    11    10    1
    69     3     2    1
    70     3     9   am
    71     2     1    1
    72     2     5    1
    73     7     6    2
    74    10     9    1
    75    10    13    1
    76     5     6    1
    77     6     8   am
    78    13    14    1
    79    14    15    1
    80    14    16    1
