@<TRIPOS>MOLECULE
tmp/3czeA00.pdb
 115 109 0 0 0
SMALL
GASTEIGER

@<TRIPOS>ATOM
      1  N         31.6730   69.6300   26.9350 N.3    87  TYR87      -0.1241
      2  CA        32.0000   70.7910   27.7430 C.3    87  TYR87       0.1605
      3  C         32.5580   71.7380   26.6850 C.2    87  TYR87       0.2264
      4  O         33.3520   71.3210   25.8360 O.2    87  TYR87      -0.2867
      5  CB        33.0890   70.4580   28.7550 C.3    87  TYR87       0.0534
      6  CG        32.6090   69.7090   29.9770 C.ar   87  TYR87      -0.0201
      7  CD1       31.9840   70.3850   31.0280 C.ar   87  TYR87      -0.0009
      8  CD2       32.7930   68.3290   30.0940 C.ar   87  TYR87      -0.0009
      9  CE1       31.5590   69.7060   32.1710 C.ar   87  TYR87       0.0417
     10  CE2       32.3680   67.6370   31.2320 C.ar   87  TYR87       0.0417
     11  CZ        31.7540   68.3330   32.2650 C.ar   87  TYR87       0.1957
     12  OH        31.3510   67.6680   33.4020 O.3    87  TYR87      -0.2866
     13  N         30.9720   72.3050   41.5590 N.3   127  ASP127     -0.1225
     14  CA        30.4410   71.0380   41.0640 C.3   127  ASP127      0.1805
     15  C         30.3560   71.0060   39.5400 C.2   127  ASP127      0.2598
     16  O         29.2950   70.7640   38.9670 O.2   127  ASP127     -0.2718
     17  CB        29.0620   70.7800   41.6910 C.3   127  ASP127      0.1424
     18  CG        28.4250   69.4820   41.2170 C.2   127  ASP127      0.3668
     19  OD1       29.1300   68.6350   40.6250 O.co2 127  ASP127     -0.2456
     20  OD2       27.2070   69.3110   41.4510 O.co2 127  ASP127     -0.2456
     21  N         31.4850   71.2630   38.8900 N.am  128  GLY128     -0.1957
     22  CA        31.5260   71.2390   37.4400 C.3   128  GLY128      0.1869
     23  C         30.6120   72.2260   36.7360 C.2   128  GLY128      0.2309
     24  O         30.1340   71.9520   35.6340 O.2   128  GLY128     -0.2863
     25  N         27.6590   73.3240   37.8970 N.3   130  PHE130     -0.1241
     26  CA        26.2660   73.2080   38.3180 C.3   130  PHE130      0.1605
     27  C         25.8820   74.0640   39.5230 C.2   130  PHE130      0.2264
     28  O         24.7320   74.0490   39.9680 O.2   130  PHE130     -0.2867
     29  CB        25.9220   71.7380   38.5330 C.3   130  PHE130      0.0534
     30  CG        25.7120   70.9970   37.2520 C.ar  130  PHE130     -0.0203
     31  CD1       24.4810   71.0460   36.6030 C.ar  130  PHE130     -0.0042
     32  CD2       26.7620   70.3120   36.6490 C.ar  130  PHE130     -0.0042
     33  CE1       24.3010   70.4240   35.3670 C.ar  130  PHE130     -0.0003
     34  CE2       26.5920   69.6890   35.4140 C.ar  130  PHE130     -0.0003
     35  CZ        25.3600   69.7460   34.7730 C.ar  130  PHE130     -0.0000
     36  N         25.2780   70.3510   47.5250 N.3   228  TYR228     -0.1241
     37  CA        26.4400   70.8850   48.2290 C.3   228  TYR228      0.1605
     38  C         26.0500   72.0380   49.1360 C.2   228  TYR228      0.2264
     39  O         25.0660   72.7300   48.8860 O.2   228  TYR228     -0.2867
     40  CB        27.5120   71.3310   47.2330 C.3   228  TYR228      0.0534
     41  CG        28.2000   70.1630   46.5690 C.ar  228  TYR228     -0.0201
     42  CD1       29.1650   69.4200   47.2480 C.ar  228  TYR228     -0.0009
     43  CD2       27.8410   69.7570   45.2860 C.ar  228  TYR228     -0.0009
     44  CE1       29.7520   68.2940   46.6670 C.ar  228  TYR228      0.0417
     45  CE2       28.4180   68.6350   44.6980 C.ar  228  TYR228      0.0417
     46  CZ        29.3700   67.9090   45.3940 C.ar  228  TYR228      0.1957
     47  OH        29.9180   66.7850   44.8220 O.3   228  TYR228     -0.2866
     48  N         17.8250   71.9060   29.6110 N.3   259  ARG259     -0.1245
     49  CA        17.9320   70.7090   30.4230 C.3   259  ARG259      0.1563
     50  C         17.5780   71.1870   31.8220 C.2   259  ARG259      0.2260
     51  O         18.3810   71.8470   32.4860 O.2   259  ARG259     -0.2867
     52  CB        19.3590   70.1590   30.3830 C.3   259  ARG259      0.0307
     53  CG        19.5370   68.8140   31.0810 C.3   259  ARG259      0.0489
     54  CD        20.8760   68.2060   30.6860 C.3   259  ARG259      0.2205
     55  NE        21.1690   66.9630   31.3870 N.pl3 259  ARG259     -0.0865
     56  CZ        22.0390   66.8550   32.3870 C.cat 259  ARG259      0.5346
     57  NH1       22.7040   67.9190   32.8070 N.pl3 259  ARG259      0.1354
     58  NH2       22.2520   65.6770   32.9610 N.pl3 259  ARG259      0.1354
     59  N         16.0380   66.5150   33.0820 N.3   301  GLU301     -0.1245
     60  CA        17.3600   65.9530   33.3380 C.3   301  GLU301      0.1567
     61  C         17.2540   64.7060   34.2060 C.2   301  GLU301      0.2260
     62  O         18.0840   63.8020   34.1130 O.2   301  GLU301     -0.2867
     63  CB        18.2350   67.0100   34.0200 C.3   301  GLU301      0.0388
     64  CG        19.4840   66.4910   34.7270 C.3   301  GLU301      0.1160
     65  CD        19.1960   65.9990   36.1370 C.2   301  GLU301      0.3649
     66  OE1       18.4310   66.6720   36.8610 O.co2 301  GLU301     -0.2457
     67  OE2       19.7430   64.9470   36.5240 O.co2 301  GLU301     -0.2457
     68  N         17.4440   61.6840   36.2880 N.3   303  ILE303     -0.1245
     69  CA        18.0530   60.3880   36.0190 C.3   303  ILE303      0.1561
     70  C         17.4010   59.4090   36.9890 C.2   303  ILE303      0.2260
     71  O         17.8480   59.2500   38.1260 O.2   303  ILE303     -0.2867
     72  CB        19.5760   60.4370   36.2550 C.3   303  ILE303      0.0252
     73  CG1       20.2130   61.4020   35.2480 C.3   303  ILE303      0.0019
     74  CG2       20.1790   59.0430   36.1200 C.3   303  ILE303      0.0019
     75  CD1       21.7030   61.6040   35.4420 C.3   303  ILE303      0.0001
     76  N         28.8230   62.9430   30.9480 N.3   368  HIS368     -0.1226
     77  CA        29.8270   63.5250   31.8290 C.3   368  HIS368      0.1752
     78  C         29.8440   62.9010   33.2210 C.2   368  HIS368      0.2596
     79  O         30.7820   63.1140   33.9870 O.2   368  HIS368     -0.2718
     80  CB        29.5890   65.0240   31.9570 C.3   368  HIS368      0.0759
     81  CG        28.2290   65.3720   32.4790 C.ar  368  HIS368      0.0818
     82  ND1       27.0710   65.0830   31.7900 N.ar  368  HIS368     -0.2268
     83  CD2       27.8440   65.9730   33.6290 C.ar  368  HIS368      0.1154
     84  CE1       26.0320   65.4920   32.4930 C.ar  368  HIS368      0.1986
     85  NE2       26.4730   66.0360   33.6140 N.ar  368  HIS368     -0.2212
     86  N         28.8060   62.1370   33.5450 N.am  369  ASP369     -0.1974
     87  CA        28.7170   61.4980   34.8490 C.3   369  ASP369      0.1709
     88  C         29.0710   60.0250   34.8050 C.2   369  ASP369      0.2293
     89  O         29.2590   59.4510   33.7330 O.2   369  ASP369     -0.2864
     90  CB        27.3080   61.6500   35.4260 C.3   369  ASP369      0.1436
     91  CG        27.0230   63.0590   35.8840 C.2   369  ASP369      0.3671
     92  OD1       27.9360   63.6760   36.4660 O.co2 369  ASP369     -0.2456
     93  OD2       25.8920   63.5430   35.6740 O.co2 369  ASP369     -0.2456
     94  N         35.3750   61.5010   38.2100 N.3   482  ARG482     -0.1245
     95  CA        34.6430   61.6140   36.9560 C.3   482  ARG482      0.1563
     96  C         35.4650   62.2880   35.8550 C.2   482  ARG482      0.2260
     97  O         35.1320   62.1930   34.6700 O.2   482  ARG482     -0.2867
     98  CB        33.3250   62.3610   37.1870 C.3   482  ARG482      0.0307
     99  CG        32.2800   61.5230   37.9200 C.3   482  ARG482      0.0489
    100  CD        31.0350   62.3370   38.2320 C.3   482  ARG482      0.2205
    101  NE        31.3140   63.3780   39.2190 N.pl3 482  ARG482     -0.0865
    102  CZ        30.4510   64.3210   39.5790 C.cat 482  ARG482      0.5346
    103  NH1       29.2430   64.3590   39.0310 N.pl3 482  ARG482      0.1354
    104  NH2       30.7980   65.2290   40.4860 N.pl3 482  ARG482      0.1354
    105  N         36.2510   62.8470   31.1280 N.3   486  ARG486     -0.1245
    106  CA        35.9750   64.2250   30.7530 C.3   486  ARG486      0.1563
    107  C         37.2240   64.8070   30.0860 C.2   486  ARG486      0.2260
    108  O         37.6830   65.8970   30.4340 O.2   486  ARG486     -0.2867
    109  CB        35.5860   65.0430   31.9900 C.3   486  ARG486      0.0307
    110  CG        34.2730   64.6020   32.6340 C.3   486  ARG486      0.0489
    111  CD        33.9740   65.4160   33.8800 C.3   486  ARG486      0.2205
    112  NE        32.7020   65.0550   34.4990 N.pl3 486  ARG486     -0.0865
    113  CZ        32.2010   65.6600   35.5720 C.cat 486  ARG486      0.5346
    114  NH1       32.8690   66.6550   36.1440 N.pl3 486  ARG486      0.1354
    115  NH2       31.0350   65.2760   36.0730 N.pl3 486  ARG486      0.1354
@<TRIPOS>BOND
     1     4     3    2
     2     3     2    1
     3     1     2    1
     4     2     5    1
     5     5     6    1
     6    48    49    1
     7     6     8   ar
     8     6     7   ar
     9   107   108    2
    10   107   106    1
    11     8    10   ar
    12    52    49    1
    13    52    53    1
    14    49    50    1
    15    54    53    1
    16    54    55    1
    17   106   105    1
    18   106   109    1
    19    76    77    1
    20     7     9   ar
    21    10    11   ar
    22    55    56    2
    23    82    81   ar
    24    82    84   ar
    25    50    51    2
    26    77    80    1
    27    77    78    1
    28    80    81    1
    29   109   110    1
    30     9    11   ar
    31    11    12    1
    32    56    57    1
    33    56    58    1
    34    81    83   ar
    35    84    85   ar
    36   110   111    1
    37    59    60    1
    38    78    86   am
    39    78    79    2
    40    60    63    1
    41    60    61    1
    42    86    87    1
    43    85    83   ar
    44    89    88    2
    45   111   112    1
    46    63    64    1
    47    62    61    2
    48   112   113    2
    49    97    96    2
    50    64    65    1
    51    35    33   ar
    52    35    34   ar
    53    88    87    1
    54    87    90    1
    55    73    75    1
    56    73    72    1
    57    33    31   ar
    58    34    32   ar
    59    90    91    1
    60   113   115    1
    61   113   114    1
    62    24    23    2
    63    93    91   ar
    64    96    95    1
    65    91    92   ar
    66    69    72    1
    67    69    68    1
    68    69    70    1
    69    74    72    1
    70    65    67   ar
    71    65    66   ar
    72    31    30   ar
    73    32    30   ar
    74    23    22    1
    75    95    98    1
    76    95    94    1
    77    70    71    2
    78    98    99    1
    79    30    29    1
    80    22    21    1
    81    25    26    1
    82    99   100    1
    83   100   101    1
    84    26    29    1
    85    26    27    1
    86    21    15   am
    87    16    15    2
    88   103   102    1
    89   101   102    2
    90    27    28    2
    91    15    14    1
    92   102   104    1
    93    19    18   ar
    94    14    13    1
    95    14    17    1
    96    18    20   ar
    97    18    17    1
    98    45    43   ar
    99    45    46   ar
   100    47    46    1
   101    43    41   ar
   102    46    44   ar
   103    41    40    1
   104    41    42   ar
   105    44    42   ar
   106    40    37    1
   107    36    37    1
   108    37    38    1
   109    39    38    2
