@<TRIPOS>MOLECULE
tmp/3czfA00.pdb
 209 202 0 0 0
SMALL
GASTEIGER

@<TRIPOS>ATOM
      1  N         26.0650    0.9760   31.8210 N.3     5  MET5       -0.1245
      2  CA        26.4050    2.2200   32.4820 C.3     5  MET5        0.1570
      3  C         27.8170    2.5940   32.0600 C.2     5  MET5        0.2261
      4  O         28.6940    1.7340   31.9810 O.2     5  MET5       -0.2867
      5  CB        26.3270    2.0830   34.0100 C.3     5  MET5        0.0387
      6  CG        26.5510    3.3910   34.7360 C.3     5  MET5        0.0595
      7  SD        25.9620    3.3710   36.4260 S.3     5  MET5       -0.1393
      8  CE        27.1490    2.2820   37.2110 C.3     5  MET5        0.0692
      9  N         30.8730    5.8610   32.4010 N.3     7  TYR7       -0.1241
     10  CA        31.4380    7.1560   32.7860 C.3     7  TYR7        0.1605
     11  C         32.5260    7.5030   31.7830 C.2     7  TYR7        0.2264
     12  O         33.4760    6.7310   31.5920 O.2     7  TYR7       -0.2867
     13  CB        31.9790    7.1340   34.2220 C.3     7  TYR7        0.0534
     14  CG        30.8890    6.9710   35.2500 C.ar    7  TYR7       -0.0201
     15  CD1       30.0500    8.0250   35.5850 C.ar    7  TYR7       -0.0009
     16  CD2       30.6650    5.7600   35.8710 C.ar    7  TYR7       -0.0009
     17  CE1       29.0310    7.8610   36.5330 C.ar    7  TYR7        0.0417
     18  CE2       29.6710    5.6060   36.8270 C.ar    7  TYR7        0.0417
     19  CZ        28.8590    6.6490   37.1530 C.ar    7  TYR7        0.1957
     20  OH        27.8830    6.4650   38.1060 O.3     7  TYR7       -0.2866
     21  N         35.3170   10.5210   30.4630 N.3     9  HIS9       -0.1241
     22  CA        36.1300   11.5900   31.0090 C.3     9  HIS9        0.1621
     23  C         37.0730   12.0920   29.9220 C.2     9  HIS9        0.2264
     24  O         37.7020   11.2780   29.2440 O.2     9  HIS9       -0.2867
     25  CB        37.0010   11.1180   32.1840 C.3     9  HIS9        0.0745
     26  CG        36.3080   10.2370   33.1720 C.ar    9  HIS9        0.0817
     27  ND1       35.9840    8.9260   32.8990 N.ar    9  HIS9       -0.2268
     28  CD2       35.8940   10.4580   34.4530 C.ar    9  HIS9        0.1154
     29  CE1       35.4310    8.3850   33.9810 C.ar    9  HIS9        0.1986
     30  NE2       35.3560    9.2920   34.9410 N.ar    9  HIS9       -0.2212
     31  N         33.4080   15.4000   32.5150 N.3    24  THR24      -0.1203
     32  CA        32.9650   14.0300   32.6420 C.3    24  THR24       0.1994
     33  C         31.4470   13.9480   32.6460 C.2    24  THR24       0.2617
     34  O         30.7790   14.7980   33.2220 O.2    24  THR24      -0.2717
     35  CB        33.5860   13.3280   33.8740 C.3    24  THR24       0.1784
     36  OG1       33.0700   11.9920   33.9850 O.3    24  THR24      -0.2211
     37  CG2       33.3520   14.0640   35.1670 C.3    24  THR24       0.0376
     38  N         30.9320   12.9150   31.9880 N.am   25  VAL25      -0.1979
     39  CA        29.5080   12.6400   31.9380 C.3    25  VAL25       0.1595
     40  C         29.2790   11.1640   32.2130 C.2    25  VAL25       0.2287
     41  O         30.1250   10.3210   31.9180 O.2    25  VAL25      -0.2864
     42  CB        28.9020   13.0360   30.5570 C.3    25  VAL25       0.0276
     43  CG1       28.8910   14.5620   30.3800 C.3    25  VAL25       0.0022
     44  CG2       29.6390   12.3820   29.3900 C.3    25  VAL25       0.0022
     45  N         24.4290   12.3410   34.6320 N.3    34  VAL34      -0.1245
     46  CA        25.2440   13.2200   35.4600 C.3    34  VAL34       0.1561
     47  C         26.2880   13.9150   34.5890 C.2    34  VAL34       0.2260
     48  O         26.7260   13.3690   33.5730 O.2    34  VAL34      -0.2867
     49  CB        25.9470   12.5050   36.6540 C.3    34  VAL34       0.0252
     50  CG1       24.9370   12.1010   37.7300 C.3    34  VAL34       0.0019
     51  CG2       26.8020   11.3110   36.2010 C.3    34  VAL34       0.0019
     52  N         29.8970   16.8660   35.0030 N.3    36  PHE36      -0.1241
     53  CA        30.7900   17.7310   35.7590 C.3    36  PHE36       0.1605
     54  C         31.7170   18.4060   34.7690 C.2    36  PHE36       0.2264
     55  O         32.2940   17.7450   33.8930 O.2    36  PHE36      -0.2867
     56  CB        31.6070   16.8940   36.7610 C.3    36  PHE36       0.0534
     57  CG        32.6430   17.6730   37.5420 C.ar   36  PHE36      -0.0203
     58  CD1       33.8780   17.9790   37.0130 C.ar   36  PHE36      -0.0042
     59  CD2       32.3730   18.0860   38.8410 C.ar   36  PHE36      -0.0042
     60  CE1       34.8270   18.6700   37.7710 C.ar   36  PHE36      -0.0003
     61  CE2       33.3180   18.7740   39.5940 C.ar   36  PHE36      -0.0003
     62  CZ        34.5480   19.0730   39.0470 C.ar   36  PHE36      -0.0000
     63  N         29.2360   17.9160   40.5620 N.3    45  GLU45      -0.1245
     64  CA        28.4950   17.0410   39.6650 C.3    45  GLU45       0.1567
     65  C         27.0240   17.3630   39.7730 C.2    45  GLU45       0.2260
     66  O         26.5120   17.5200   40.8860 O.2    45  GLU45      -0.2867
     67  CB        28.7120   15.5740   39.9730 C.3    45  GLU45       0.0388
     68  CG        28.0490   14.7200   38.9180 C.3    45  GLU45       0.1160
     69  CD        28.4010   13.2800   39.0130 C.2    45  GLU45       0.3649
     70  OE1       27.7800   12.5820   39.8590 O.co2  45  GLU45      -0.2457
     71  OE2       29.2610   12.8110   38.2610 O.co2  45  GLU45      -0.2457
     72  N         25.6160   11.6090   48.3340 N.3    59  TYR59      -0.1241
     73  CA        25.8940   11.1010   46.9980 C.3    59  TYR59       0.1605
     74  C         26.5760   12.1880   46.1740 C.2    59  TYR59       0.2264
     75  O         27.6240   11.9610   45.5760 O.2    59  TYR59      -0.2867
     76  CB        24.5980   10.6140   46.3460 C.3    59  TYR59       0.0534
     77  CG        24.7430   10.0910   44.9150 C.ar   59  TYR59      -0.0201
     78  CD1       24.8450    8.7400   44.6610 C.ar   59  TYR59      -0.0009
     79  CD2       24.6860   10.9470   43.8380 C.ar   59  TYR59      -0.0009
     80  CE1       24.9370    8.2520   43.3700 C.ar   59  TYR59       0.0417
     81  CE2       24.8020   10.4820   42.5260 C.ar   59  TYR59       0.0417
     82  CZ        24.9090    9.1310   42.3030 C.ar   59  TYR59       0.1957
     83  OH        24.9950    8.6730   41.0050 O.3    59  TYR59      -0.2866
     84  N         30.1660   13.0650   47.4070 N.3    62  ARG62      -0.1231
     85  CA        31.1470   12.0450   47.0360 C.3    62  ARG62       0.1694
     86  C         31.4590   12.1120   45.5440 C.2    62  ARG62       0.2591
     87  O         32.6240   12.1030   45.1290 O.2    62  ARG62      -0.2718
     88  CB        30.6610   10.6430   47.4300 C.3    62  ARG62       0.0321
     89  CG        31.6630    9.5420   47.1360 C.3    62  ARG62       0.0489
     90  CD        31.1400    8.2250   47.5870 C.3    62  ARG62       0.2205
     91  NE        32.0800    7.1220   47.4550 N.pl3  62  ARG62      -0.0865
     92  CZ        32.2330    6.3710   46.3680 C.cat  62  ARG62       0.5346
     93  NH1       31.5070    6.5760   45.2810 N.pl3  62  ARG62       0.1354
     94  NH2       33.1230    5.3850   46.3890 N.pl3  62  ARG62       0.1354
     95  N         30.4160   12.1850   44.7220 N.am   63  GLU63      -0.1979
     96  CA        30.6050   12.2620   43.2760 C.3    63  GLU63       0.1602
     97  C         31.4530   13.4680   42.9190 C.2    63  GLU63       0.2287
     98  O         32.3490   13.3910   42.0800 O.2    63  GLU63      -0.2864
     99  CB        29.2620   12.3610   42.5660 C.3    63  GLU63       0.0415
    100  CG        28.4440   11.1020   42.5710 C.3    63  GLU63       0.1163
    101  CD        28.9300   10.0990   41.5840 C.2    63  GLU63       0.3649
    102  OE1       28.8660   10.3920   40.3530 O.co2  63  GLU63      -0.2457
    103  OE2       29.3870    9.0190   41.9980 O.co2  63  GLU63      -0.2457
    104  N         35.1100   12.9260   43.8400 N.3    66  ILE66      -0.1231
    105  CA        35.7150   12.0050   42.8880 C.3    66  ILE66       0.1692
    106  C         36.0670   12.7230   41.5970 C.2    66  ILE66       0.2592
    107  O         37.1410   12.5180   41.0390 O.2    66  ILE66      -0.2718
    108  CB        34.8030   10.7890   42.6200 C.3    66  ILE66       0.0266
    109  CG1       34.7660    9.9010   43.8610 C.3    66  ILE66       0.0019
    110  CG2       35.2810   10.0220   41.4010 C.3    66  ILE66       0.0020
    111  CD1       33.7440    8.7900   43.8090 C.3    66  ILE66       0.0001
    112  N         35.1460   13.5510   41.1110 N.am   67  CYS67      -0.1970
    113  CA        35.3920   14.2930   39.8770 C.3    67  CYS67       0.1712
    114  C         36.5640   15.2570   40.0110 C.2    67  CYS67       0.2296
    115  O         37.4080   15.3570   39.1170 O.2    67  CYS67      -0.2864
    116  CB        34.1300   15.0380   39.4410 C.3    67  CYS67       0.0983
    117  SG        32.7990   13.9900   38.8080 S.3    67  CYS67      -0.0798
    118  N         34.9600    4.0260   31.7140 N.3    99  TYR99      -0.1241
    119  CA        34.7690    2.7950   32.4570 C.3    99  TYR99       0.1605
    120  C         33.2930    2.5600   32.6770 C.2    99  TYR99       0.2264
    121  O         32.4840    3.4770   32.5630 O.2    99  TYR99      -0.2867
    122  CB        35.5590    2.7410   33.7770 C.3    99  TYR99       0.0534
    123  CG        35.1460    3.6920   34.8700 C.ar   99  TYR99      -0.0201
    124  CD1       34.1280    3.3550   35.7570 C.ar   99  TYR99      -0.0009
    125  CD2       35.8040    4.8890   35.0840 C.ar   99  TYR99      -0.0009
    126  CE1       33.7570    4.1940   36.7790 C.ar   99  TYR99       0.0417
    127  CE2       35.4520    5.7250   36.1280 C.ar   99  TYR99       0.0417
    128  CZ        34.4160    5.3850   36.9770 C.ar   99  TYR99       0.1957
    129  OH        34.0510    6.2030   38.0200 O.3    99  TYR99      -0.2866
    130  N         37.4140   -0.6170   31.4200 N.3   114  HIS114     -0.1241
    131  CA        38.1930    0.4990   31.9470 C.3   114  HIS114      0.1621
    132  C         39.3290    0.7400   30.9590 C.2   114  HIS114      0.2264
    133  O         40.2220   -0.0910   30.8470 O.2   114  HIS114     -0.2867
    134  CB        38.7600    0.2070   33.3360 C.3   114  HIS114      0.0745
    135  CG        39.5770    1.3320   33.8700 C.ar  114  HIS114      0.0817
    136  ND1       39.1290    2.2260   34.8170 N.ar  114  HIS114     -0.2268
    137  CD2       40.8140    1.7440   33.5160 C.ar  114  HIS114      0.1154
    138  CE1       40.0740    3.1270   35.0400 C.ar  114  HIS114      0.1986
    139  NE2       41.1010    2.8620   34.2610 N.ar  114  HIS114     -0.2212
    140  N         41.3690   -4.4420   41.8430 N.3   155  GLN155     -0.1231
    141  CA        40.5380   -3.3800   42.4500 C.3   155  GLN155      0.1698
    142  C         39.4600   -2.9390   41.5050 C.2   155  GLN155      0.2592
    143  O         38.3030   -2.7300   41.8880 O.2   155  GLN155     -0.2718
    144  CB        41.4230   -2.4160   43.1680 C.3   155  GLN155      0.0381
    145  CG        42.4280   -3.0770   44.1610 C.3   155  GLN155      0.0905
    146  CD        43.4600   -2.1090   44.6950 C.2   155  GLN155      0.2608
    147  OE1       43.1250   -1.2170   45.4570 O.2   155  GLN155     -0.2717
    148  NE2       44.7200   -2.2670   44.2850 N.am  155  GLN155     -0.0878
    149  N         39.8120   -2.7750   40.2450 N.am  156  LEU156     -0.1980
    150  CA        38.8350   -2.4250   39.2370 C.3   156  LEU156      0.1596
    151  C         37.8060   -3.5350   39.0670 C.2   156  LEU156      0.2287
    152  O         36.6020   -3.2550   38.9780 O.2   156  LEU156     -0.2864
    153  CB        39.5010   -2.0550   37.9110 C.3   156  LEU156      0.0297
    154  CG        40.4360   -0.8190   37.9660 C.3   156  LEU156      0.0022
    155  CD1       41.0170   -0.6080   36.5840 C.3   156  LEU156      0.0001
    156  CD2       39.7990    0.4540   38.5280 C.3   156  LEU156      0.0001
    157  N         35.1210   -3.4200   41.7400 N.3   159  TYR159     -0.1241
    158  CA        34.1270   -2.3820   41.4650 C.3   159  TYR159      0.1605
    159  C         33.1920   -2.7870   40.3170 C.2   159  TYR159      0.2264
    160  O         31.9650   -2.6710   40.4170 O.2   159  TYR159     -0.2867
    161  CB        34.8220   -1.0480   41.1470 C.3   159  TYR159      0.0534
    162  CG        33.8850   -0.0210   40.5500 C.ar  159  TYR159     -0.0201
    163  CD1       33.0270    0.7330   41.3410 C.ar  159  TYR159     -0.0009
    164  CD2       33.8170    0.1630   39.1880 C.ar  159  TYR159     -0.0009
    165  CE1       32.1490    1.6590   40.7800 C.ar  159  TYR159      0.0417
    166  CE2       32.9450    1.0980   38.6060 C.ar  159  TYR159      0.0417
    167  CZ        32.1270    1.8380   39.4120 C.ar  159  TYR159      0.1957
    168  OH        31.2970    2.7480   38.8040 O.3   159  TYR159     -0.2866
    169  N         29.8250   -2.9170   42.7630 N.3   163  GLU163     -0.1231
    170  CA        29.1390   -1.6290   42.7410 C.3   163  GLU163      0.1699
    171  C         28.6220   -1.2150   41.3930 C.2   163  GLU163      0.2592
    172  O         27.5310   -0.6720   41.3180 O.2   163  GLU163     -0.2718
    173  CB        30.0240   -0.4860   43.2880 C.3   163  GLU163      0.0402
    174  CG        30.1350   -0.5110   44.8010 C.3   163  GLU163      0.1161
    175  CD        30.7400    0.7250   45.3930 C.2   163  GLU163      0.3649
    176  OE1       30.7020    1.7990   44.7700 O.co2 163  GLU163     -0.2457
    177  OE2       31.2310    0.6240   46.5360 O.co2 163  GLU163     -0.2457
    178  N         29.3880   -1.4050   40.3330 N.am  164  CYS164     -0.1970
    179  CA        28.9270   -0.9070   39.0550 C.3   164  CYS164      0.1712
    180  C         27.5760   -1.5550   38.7080 C.2   164  CYS164      0.2296
    181  O         26.6180   -0.8820   38.3320 O.2   164  CYS164     -0.2864
    182  CB        29.9750   -1.1810   37.9810 C.3   164  CYS164      0.0983
    183  SG        29.6550   -0.3920   36.3740 S.3   164  CYS164     -0.0798
    184  N         24.7040   -0.5200   41.3860 N.3   167  TRP167     -0.1241
    185  CA        24.1890    0.8280   41.1890 C.3   167  TRP167      0.1605
    186  C         23.4330    0.9410   39.8720 C.2   167  TRP167      0.2264
    187  O         22.3930    1.5970   39.8100 O.2   167  TRP167     -0.2867
    188  CB        25.2920    1.8970   41.3320 C.3   167  TRP167      0.0550
    189  CG        25.6380    2.1140   42.7730 C.ar  167  TRP167      0.0003
    190  CD1       26.5220    1.3950   43.5330 C.ar  167  TRP167      0.0946
    191  CD2       25.0710    3.0860   43.6540 C.ar  167  TRP167      0.0152
    192  NE1       26.5380    1.8730   44.8150 N.ar  167  TRP167     -0.2442
    193  CE2       25.6410    2.9010   44.9200 C.ar  167  TRP167      0.0810
    194  CE3       24.1120    4.0850   43.4950 C.ar  167  TRP167      0.0012
    195  CZ2       25.2930    3.6890   46.0140 C.ar  167  TRP167      0.0191
    196  CZ3       23.7780    4.8700   44.5850 C.ar  167  TRP167      0.0001
    197  CH2       24.3690    4.6690   45.8140 C.ar  167  TRP167      0.0015
    198  N         19.6080    2.2880   39.4980 N.3   171  TYR171     -0.1241
    199  CA        19.1950    3.3270   38.5630 C.3   171  TYR171      0.1605
    200  C         18.0920    2.8430   37.6320 C.2   171  TYR171      0.2264
    201  O         17.1370    3.5790   37.3400 O.2   171  TYR171     -0.2867
    202  CB        20.3850    3.8520   37.7650 C.3   171  TYR171      0.0534
    203  CG        21.5240    4.4340   38.5870 C.ar  171  TYR171     -0.0201
    204  CD1       21.3120    5.0720   39.7880 C.ar  171  TYR171     -0.0009
    205  CD2       22.8100    4.3750   38.1110 C.ar  171  TYR171     -0.0009
    206  CE1       22.3600    5.5870   40.5360 C.ar  171  TYR171      0.0417
    207  CE2       23.8650    4.9100   38.8330 C.ar  171  TYR171      0.0417
    208  CZ        23.6380    5.4980   40.0480 C.ar  171  TYR171      0.1957
    209  OH        24.6940    6.0230   40.7860 O.3   171  TYR171     -0.2866
@<TRIPOS>BOND
     1    24    23    2
     2    44    42    1
     3    23    22    1
     4    43    42    1
     5    21    22    1
     6    42    39    1
     7   133   132    2
     8   132   131    1
     9    22    25    1
    10   130   131    1
    11    12    11    2
    12   118   119    1
    13    11    10    1
    14     1     2    1
    15    41    40    2
    16    39    38    1
    17    39    40    1
    18   131   134    1
    19     4     3    2
    20    38    33   am
    21     3     2    1
    22    25    26    1
    23     9    10    1
    24   119   120    1
    25   119   122    1
    26     2     5    1
    27    31    32    1
    28   121   120    2
    29    32    33    1
    30    32    35    1
    31    33    34    2
    32    10    13    1
    33    27    26   ar
    34    27    29   ar
    35    26    28   ar
    36   134   135    1
    37   137   135   ar
    38   137   139   ar
    39    48    47    2
    40   122   123    1
    41   135   136   ar
    42    35    36    1
    43    35    37    1
    44    55    54    2
    45    29    30   ar
    46     5     6    1
    47    13    14    1
    48   139   138   ar
    49    28    30   ar
    50    47    46    1
    51    45    46    1
    52     6     7    1
    53    54    53    1
    54   136   138   ar
    55   123   125   ar
    56   123   124   ar
    57    52    53    1
    58   125   127   ar
    59    14    15   ar
    60    14    16   ar
    61    46    49    1
    62    15    17   ar
    63   124   126   ar
    64    53    56    1
    65    16    18   ar
    66   127   128   ar
    67    51    49    1
    68   183   182    1
    69     7     8    1
    70    17    19   ar
    71   155   154    1
    72    49    50    1
    73    56    57    1
    74   126   128   ar
    75    18    19   ar
    76   128   129    1
    77    58    57   ar
    78    58    60   ar
    79    19    20    1
    80   201   200    2
    81    57    59   ar
    82   200   199    1
    83   202   199    1
    84   202   203    1
    85    60    62   ar
    86   153   154    1
    87   153   150    1
    88   154   156    1
    89   182   179    1
    90   205   203   ar
    91   205   207   ar
    92    71    69   ar
    93   181   180    2
    94   199   198    1
    95   203   204   ar
    96   166   164   ar
    97   166   167   ar
    98   180   179    1
    99   168   167    1
   100   117   116    1
   101   207   208   ar
   102    59    61   ar
   103    68    69    1
   104    68    67    1
   105   152   151    2
   106    69    70   ar
   107    62    61   ar
   108   179   178    1
   109   151   150    1
   110   115   114    2
   111   164   162   ar
   112   150   149    1
   113   167   165   ar
   114   116   113    1
   115    64    65    1
   116    64    67    1
   117    64    63    1
   118    65    66    2
   119   204   206   ar
   120   187   186    2
   121   186   185    1
   122   113   114    1
   123   113   112    1
   124   208   206   ar
   125   208   209    1
   126   149   142   am
   127   159   160    2
   128   159   158    1
   129   178   171   am
   130   102   101   ar
   131   162   161    1
   132   162   163   ar
   133   165   163   ar
   134    83    82    1
   135   107   106    2
   136   112   106   am
   137   161   158    1
   138   185   188    1
   139   185   184    1
   140   172   171    2
   141   188   189    1
   142   171   170    1
   143   110   108    1
   144   158   157    1
   145   142   143    2
   146   142   141    1
   147   101   103   ar
   148   101   100    1
   149   106   105    1
   150   140   141    1
   151    98    97    2
   152    82    81   ar
   153    82    80   ar
   154   141   144    1
   155    81    79   ar
   156    99   100    1
   157    99    96    1
   158   108   105    1
   159   108   109    1
   160   170   169    1
   161   170   173    1
   162   189   190   ar
   163   189   191   ar
   164   105   104    1
   165    97    96    1
   166   144   145    1
   167    96    95    1
   168   173   174    1
   169    80    78   ar
   170   194   191   ar
   171   194   196   ar
   172   190   192   ar
   173   191   193   ar
   174   111   109    1
   175    79    77   ar
   176   145   146    1
   177   148   146   am
   178   196   197   ar
   179    78    77   ar
   180   146   147    2
   181    95    86   am
   182   176   175   ar
   183   174   175    1
   184   192   193   ar
   185    77    76    1
   186   193   195   ar
   187    87    86    2
   188    93    92    1
   189   175   177   ar
   190    86    85    1
   191    75    74    2
   192   197   195   ar
   193    74    73    1
   194    76    73    1
   195    92    94    1
   196    92    91    2
   197    73    72    1
   198    85    84    1
   199    85    88    1
   200    89    88    1
   201    89    90    1
   202    91    90    1
