@<TRIPOS>MOLECULE
tmp/3czgA00.pdb
 143 136 0 0 0
SMALL
GASTEIGER

@<TRIPOS>ATOM
      1  N         31.1490   74.8940   40.5930 N.3   131  ASP131     -0.1239
      2  CA        30.7550   73.6090   40.0330 C.3   131  ASP131      0.1674
      3  C         30.6650   73.5840   38.5140 C.2   131  ASP131      0.2266
      4  O         29.6400   73.2040   37.9460 O.2   131  ASP131     -0.2867
      5  CB        29.4240   73.1630   40.6300 C.3   131  ASP131      0.1410
      6  CG        29.0510   71.7550   40.2170 C.2   131  ASP131      0.3668
      7  OD1       29.9570   70.9860   39.8320 O.co2 131  ASP131     -0.2456
      8  OD2       27.8570   71.4190   40.2900 O.co2 131  ASP131     -0.2456
      9  N         27.6900   75.7130   37.1930 N.3   134  PHE134     -0.1241
     10  CA        26.3280   75.4750   37.6450 C.3   134  PHE134      0.1605
     11  C         25.8480   76.3350   38.8060 C.2   134  PHE134      0.2264
     12  O         24.6860   76.2550   39.1970 O.2   134  PHE134     -0.2867
     13  CB        26.1200   73.9820   37.9180 C.3   134  PHE134      0.0534
     14  CG        25.8640   73.1870   36.6650 C.ar  134  PHE134     -0.0203
     15  CD1       24.5960   73.1680   36.0830 C.ar  134  PHE134     -0.0042
     16  CD2       26.9020   72.5170   36.0280 C.ar  134  PHE134     -0.0042
     17  CE1       24.3680   72.4910   34.8770 C.ar  134  PHE134     -0.0003
     18  CE2       26.6870   71.8380   34.8230 C.ar  134  PHE134     -0.0003
     19  CZ        25.4190   71.8260   34.2460 C.ar  134  PHE134     -0.0000
     20  N         18.2120   77.0230   41.8890 N.3   174  HIS174     -0.1241
     21  CA        19.0920   77.7660   42.7900 C.3   174  HIS174      0.1621
     22  C         20.0500   78.6820   42.0450 C.2   174  HIS174      0.2264
     23  O         20.3200   78.4790   40.8660 O.2   174  HIS174     -0.2867
     24  CB        19.9210   76.7750   43.6030 C.3   174  HIS174      0.0745
     25  CG        20.4660   75.6520   42.7800 C.ar  174  HIS174      0.0817
     26  ND1       19.8080   74.4500   42.6360 N.ar  174  HIS174     -0.2268
     27  CD2       21.5580   75.5790   41.9830 C.ar  174  HIS174      0.1154
     28  CE1       20.4700   73.6860   41.7850 C.ar  174  HIS174      0.1986
     29  NE2       21.5350   74.3480   41.3740 N.ar  174  HIS174     -0.2212
     30  N         22.1800   71.5750   47.0340 N.3   231  PHE231     -0.1227
     31  CA        23.4420   71.0930   46.5000 C.3   231  PHE231      0.1736
     32  C         24.6360   71.6920   47.2330 C.2   231  PHE231      0.2595
     33  O         24.7090   71.5940   48.4570 O.2   231  PHE231     -0.2718
     34  CB        23.4920   71.3640   44.9980 C.3   231  PHE231      0.0547
     35  CG        22.3520   70.7310   44.2520 C.ar  231  PHE231     -0.0202
     36  CD1       21.1230   71.3740   44.1600 C.ar  231  PHE231     -0.0042
     37  CD2       22.4830   69.4580   43.7060 C.ar  231  PHE231     -0.0042
     38  CE1       20.0370   70.7570   43.5380 C.ar  231  PHE231     -0.0003
     39  CE2       21.4030   68.8320   43.0820 C.ar  231  PHE231     -0.0003
     40  CZ        20.1780   69.4850   42.9990 C.ar  231  PHE231     -0.0000
     41  N         25.5750   72.2950   46.5110 N.am  232  TYR232     -0.1976
     42  CA        26.7300   72.8820   47.1820 C.3   232  TYR232      0.1639
     43  C         26.2670   74.0320   48.0680 C.2   232  TYR232      0.2290
     44  O         25.2840   74.7100   47.7620 O.2   232  TYR232     -0.2864
     45  CB        27.7620   73.3520   46.1540 C.3   232  TYR232      0.0560
     46  CG        28.4060   72.1980   45.4230 C.ar  232  TYR232     -0.0198
     47  CD1       29.2820   71.3340   46.0840 C.ar  232  TYR232     -0.0009
     48  CD2       28.0890   71.9250   44.0930 C.ar  232  TYR232     -0.0009
     49  CE1       29.8210   70.2220   45.4400 C.ar  232  TYR232      0.0417
     50  CE2       28.6210   70.8150   43.4390 C.ar  232  TYR232      0.0417
     51  CZ        29.4840   69.9670   44.1190 C.ar  232  TYR232      0.1957
     52  OH        29.9970   68.8540   43.4840 O.3   232  TYR232     -0.2866
     53  N         25.1220   77.4470   46.6480 N.3   235  GLN235     -0.1245
     54  CA        23.9920   77.4790   45.7310 C.3   235  GLN235      0.1566
     55  C         22.7650   77.5570   46.6280 C.2   235  GLN235      0.2260
     56  O         22.4230   76.5880   47.3020 O.2   235  GLN235     -0.2867
     57  CB        23.9440   76.2070   44.8730 C.3   235  GLN235      0.0367
     58  CG        25.0580   76.1000   43.8370 C.3   235  GLN235      0.0905
     59  CD        25.1390   74.7210   43.1930 C.2   235  GLN235      0.2608
     60  OE1       25.2620   73.7070   43.8830 O.2   235  GLN235     -0.2717
     61  NE2       25.0800   74.6780   41.8630 N.am  235  GLN235     -0.0878
     62  N         17.5610   73.5040   29.1280 N.3   263  ARG263     -0.1245
     63  CA        17.7630   72.3300   29.9650 C.3   263  ARG263      0.1563
     64  C         17.3920   72.8460   31.3550 C.2   263  ARG263      0.2260
     65  O         18.1420   73.6070   31.9720 O.2   263  ARG263     -0.2867
     66  CB        19.2230   71.8750   29.9250 C.3   263  ARG263      0.0307
     67  CG        19.5100   70.6170   30.7570 C.3   263  ARG263      0.0489
     68  CD        20.9470   70.1490   30.5580 C.3   263  ARG263      0.2205
     69  NE        21.2740   68.9790   31.3690 N.pl3 263  ARG263     -0.0865
     70  CZ        22.0060   69.0150   32.4790 C.cat 263  ARG263      0.5346
     71  NH1       22.4920   70.1670   32.9210 N.pl3 263  ARG263      0.1354
     72  NH2       22.2620   67.8960   33.1440 N.pl3 263  ARG263      0.1354
     73  N         17.3790   72.6080   34.8130 N.3   265  ASP265     -0.1225
     74  CA        18.1180   71.9310   35.8730 C.3   265  ASP265      0.1805
     75  C         17.4830   71.8400   37.2510 C.2   265  ASP265      0.2598
     76  O         16.9260   72.8120   37.7650 O.2   265  ASP265     -0.2718
     77  CB        19.5060   72.5620   35.9990 C.3   265  ASP265      0.1424
     78  CG        20.3050   72.4480   34.7230 C.2   265  ASP265      0.3668
     79  OD1       20.3800   71.3300   34.1720 O.co2 265  ASP265     -0.2456
     80  OD2       20.8620   73.4680   34.2700 O.co2 265  ASP265     -0.2456
     81  N         17.5810   70.6440   37.8300 N.am  266  SER266     -0.1952
     82  CA        17.0690   70.3390   39.1620 C.3   266  SER266      0.1924
     83  C         15.6170   70.7340   39.4160 C.2   266  SER266      0.2314
     84  O         15.2870   71.2240   40.4990 O.2   266  SER266     -0.2863
     85  CB        17.9660   71.0020   40.2120 C.3   266  SER266      0.2116
     86  OG        19.3330   70.7190   39.9630 O.3   266  SER266     -0.2180
     87  N         15.6470   68.2180   32.9510 N.3   305  GLU305     -0.1245
     88  CA        16.9250   67.6920   33.4120 C.3   305  GLU305      0.1567
     89  C         16.5690   67.0100   34.7200 C.2   305  GLU305      0.2260
     90  O         16.6790   67.6020   35.7960 O.2   305  GLU305     -0.2867
     91  CB        17.9310   68.8110   33.6840 C.3   305  GLU305      0.0388
     92  CG        19.3330   68.3170   34.0550 C.3   305  GLU305      0.1160
     93  CD        19.3940   67.6070   35.4000 C.2   305  GLU305      0.3649
     94  OE1       19.0970   68.2490   36.4310 O.co2 305  GLU305     -0.2457
     95  OE2       19.7430   66.4040   35.4270 O.co2 305  GLU305     -0.2457
     96  N         17.4670   63.3890   36.1510 N.3   307  ILE307     -0.1245
     97  CA        18.0900   62.0790   36.0810 C.3   307  ILE307      0.1561
     98  C         17.3750   61.1470   37.0500 C.2   307  ILE307      0.2260
     99  O         17.7370   61.0460   38.2200 O.2   307  ILE307     -0.2867
    100  CB        19.5830   62.1550   36.4470 C.3   307  ILE307      0.0252
    101  CG1       20.2560   63.2890   35.6620 C.3   307  ILE307      0.0019
    102  CG2       20.2590   60.8270   36.1440 C.3   307  ILE307      0.0019
    103  CD1       20.0680   63.2120   34.1540 C.3   307  ILE307      0.0001
    104  N         28.8010   65.2350   30.7220 N.3   372  HIS372     -0.1226
    105  CA        29.7640   65.8650   31.6230 C.3   372  HIS372      0.1752
    106  C         29.7800   65.3060   33.0440 C.2   372  HIS372      0.2596
    107  O         30.6890   65.6080   33.8180 O.2   372  HIS372     -0.2718
    108  CB        29.4980   67.3720   31.6820 C.3   372  HIS372      0.0759
    109  CG        28.1400   67.7110   32.2020 C.ar  372  HIS372      0.0818
    110  ND1       26.9840   67.4260   31.5050 N.ar  372  HIS372     -0.2268
    111  CD2       27.7490   68.2580   33.3760 C.ar  372  HIS372      0.1154
    112  CE1       25.9390   67.7820   32.2310 C.ar  372  HIS372      0.1986
    113  NE2       26.3760   68.2900   33.3700 N.ar  372  HIS372     -0.2212
    114  N         28.7800   64.5020   33.3910 N.am  373  ASP373     -0.1974
    115  CA        28.7140   63.9180   34.7260 C.3   373  ASP373      0.1709
    116  C         29.1070   62.4530   34.7450 C.2   373  ASP373      0.2293
    117  O         29.3180   61.8370   33.7060 O.2   373  ASP373     -0.2864
    118  CB        27.3020   64.0350   35.3020 C.3   373  ASP373      0.1436
    119  CG        26.9360   65.4580   35.6620 C.2   373  ASP373      0.3671
    120  OD1       27.8210   66.1830   36.1520 O.co2 373  ASP373     -0.2456
    121  OD2       25.7630   65.8420   35.4700 O.co2 373  ASP373     -0.2456
    122  N         35.2480   64.3330   38.1050 N.3   487  ARG487     -0.1245
    123  CA        34.5770   64.3590   36.8060 C.3   487  ARG487      0.1563
    124  C         35.4040   64.9880   35.6780 C.2   487  ARG487      0.2260
    125  O         35.1030   64.7830   34.4960 O.2   487  ARG487     -0.2867
    126  CB        33.2150   65.0530   36.9380 C.3   487  ARG487      0.0307
    127  CG        32.2230   64.2560   37.7840 C.3   487  ARG487      0.0489
    128  CD        30.9290   65.0150   38.0350 C.3   487  ARG487      0.2205
    129  NE        31.1170   66.0930   39.0020 N.pl3 487  ARG487     -0.0865
    130  CZ        30.2300   67.0560   39.2330 C.cat 487  ARG487      0.5346
    131  NH1       29.0840   67.0810   38.5630 N.pl3 487  ARG487      0.1354
    132  NH2       30.4920   67.9960   40.1370 N.pl3 487  ARG487      0.1354
    133  N         36.2360   65.4540   31.0090 N.3   491  ARG491     -0.1245
    134  CA        35.9350   66.8070   30.5620 C.3   491  ARG491      0.1563
    135  C         37.1720   67.4020   29.8960 C.2   491  ARG491      0.2260
    136  O         37.6220   68.4920   30.2520 O.2   491  ARG491     -0.2867
    137  CB        35.5070   67.6770   31.7420 C.3   491  ARG491      0.0307
    138  CG        34.2170   67.2170   32.4020 C.3   491  ARG491      0.0489
    139  CD        33.8770   68.0780   33.6060 C.3   491  ARG491      0.2205
    140  NE        32.6250   67.6630   34.2340 N.pl3 491  ARG491     -0.0865
    141  CZ        32.0900   68.2570   35.2950 C.cat 491  ARG491      0.5346
    142  NH1       32.7010   69.2940   35.8540 N.pl3 491  ARG491      0.1354
    143  NH2       30.9350   67.8250   35.7880 N.pl3 491  ARG491      0.1354
@<TRIPOS>BOND
     1    62    63    1
     2   135   136    2
     3   135   134    1
     4    66    63    1
     5    66    67    1
     6    63    64    1
     7    68    67    1
     8    68    69    1
     9   134   133    1
    10   134   137    1
    11   104   105    1
    12    64    65    2
    13    69    70    2
    14   110   109   ar
    15   110   112   ar
    16   105   108    1
    17   105   106    1
    18   108   109    1
    19   137   138    1
    20   109   111   ar
    21   112   113   ar
    22   138   139    1
    23    70    71    1
    24    70    72    1
    25    87    88    1
    26   106   114   am
    27   106   107    2
    28   113   111   ar
    29   114   115    1
    30    88    91    1
    31    88    89    1
    32   139   140    1
    33    91    92    1
    34   117   116    2
    35    92    93    1
    36   103   101    1
    37    79    78   ar
    38   140   141    2
    39    19    18   ar
    40    19    17   ar
    41    80    78   ar
    42   125   124    2
    43    89    90    2
    44    78    77    1
    45   115   116    1
    46   115   118    1
    47    73    74    1
    48    18    16   ar
    49    17    15   ar
    50   141   143    1
    51   141   142    1
    52   118   119    1
    53    93    95   ar
    54    93    94   ar
    55   121   119   ar
    56   119   120   ar
    57   101   100    1
    58   124   123    1
    59    74    77    1
    60    74    75    1
    61    16    14   ar
    62    97    96    1
    63    97   100    1
    64    97    98    1
    65    15    14   ar
    66   102   100    1
    67    14    13    1
    68   123   126    1
    69   123   122    1
    70   126   127    1
    71    98    99    2
    72     9    10    1
    73    75    76    2
    74    75    81   am
    75    10    13    1
    76    10    11    1
    77   127   128    1
    78    81    82    1
    79     4     3    2
    80   128   129    1
    81     3     2    1
    82   131   130    1
    83    11    12    2
    84   129   130    2
    85    82    83    1
    86    82    85    1
    87   130   132    1
    88    83    84    2
    89     7     6   ar
    90    86    85    1
    91     2     1    1
    92     2     5    1
    93     6     8   ar
    94     6     5    1
    95    23    22    2
    96    29    28   ar
    97    29    27   ar
    98    28    26   ar
    99    61    59   am
   100    20    21    1
   101    27    25   ar
   102    22    21    1
   103    26    25   ar
   104    25    24    1
   105    21    24    1
   106    40    39   ar
   107    40    38   ar
   108    39    37   ar
   109    59    58    1
   110    59    60    2
   111    50    48   ar
   112    50    51   ar
   113    52    51    1
   114    38    36   ar
   115    37    35   ar
   116    58    57    1
   117    48    46   ar
   118    51    49   ar
   119    36    35   ar
   120    35    34    1
   121    57    54    1
   122    34    31    1
   123    46    47   ar
   124    46    45    1
   125    49    47   ar
   126    54    55    1
   127    54    53    1
   128    45    42    1
   129    31    30    1
   130    31    32    1
   131    41    42    1
   132    41    32   am
   133    55    56    2
   134    42    43    1
   135    32    33    2
   136    44    43    2
