@<TRIPOS>MOLECULE
tmp/3czkA00.pdb
 195 188 0 0 0
SMALL
GASTEIGER

@<TRIPOS>ATOM
      1  N         31.7340   74.8680   39.9280 N.3   132  ASP132     -0.1239
      2  CA        31.1770   73.5850   39.5170 C.3   132  ASP132      0.1674
      3  C         31.0450   73.5210   37.9980 C.2   132  ASP132      0.2266
      4  O         29.9600   73.3490   37.4460 O.2   132  ASP132     -0.2867
      5  CB        29.8250   73.3670   40.2110 C.3   132  ASP132      0.1410
      6  CG        29.2180   72.0030   39.9100 C.2   132  ASP132      0.3668
      7  OD1       29.9760   71.0320   39.6510 O.co2 132  ASP132     -0.2456
      8  OD2       27.9760   71.8960   39.9520 O.co2 132  ASP132     -0.2456
      9  N         28.2880   75.4780   36.6370 N.3   135  PHE135     -0.1241
     10  CA        26.9340   75.3060   37.1430 C.3   135  PHE135      0.1605
     11  C         26.4790   76.1920   38.2990 C.2   135  PHE135      0.2264
     12  O         25.3350   76.1090   38.7270 O.2   135  PHE135     -0.2867
     13  CB        26.6650   73.8250   37.4300 C.3   135  PHE135      0.0534
     14  CG        26.3940   73.0310   36.1790 C.ar  135  PHE135     -0.0203
     15  CD1       27.4410   72.5270   35.4140 C.ar  135  PHE135     -0.0042
     16  CD2       25.0870   72.8830   35.7040 C.ar  135  PHE135     -0.0042
     17  CE1       27.1900   71.8900   34.1890 C.ar  135  PHE135     -0.0003
     18  CE2       24.8290   72.2500   34.4840 C.ar  135  PHE135     -0.0003
     19  CZ        25.8760   71.7560   33.7270 C.ar  135  PHE135     -0.0000
     20  N         19.1750   76.5350   41.1520 N.3   175  HIS175     -0.1241
     21  CA        20.0470   77.2880   42.0660 C.3   175  HIS175      0.1621
     22  C         20.9100   78.3660   41.3920 C.2   175  HIS175      0.2264
     23  O         21.1840   78.2890   40.1990 O.2   175  HIS175     -0.2867
     24  CB        20.9760   76.3020   42.7920 C.3   175  HIS175      0.0745
     25  CG        21.4840   75.2080   41.9050 C.ar  175  HIS175      0.0817
     26  ND1       20.7230   74.1070   41.5680 N.ar  175  HIS175     -0.2268
     27  CD2       22.6520   75.0790   41.2320 C.ar  175  HIS175      0.1154
     28  CE1       21.4000   73.3490   40.7270 C.ar  175  HIS175      0.1986
     29  NE2       22.5730   73.9160   40.5070 N.ar  175  HIS175     -0.2212
     30  N         23.4060   64.4780   46.9850 N.3   216  VAL216     -0.1231
     31  CA        24.0280   64.4050   45.6720 C.3   216  VAL216      0.1692
     32  C         25.5380   64.1890   45.7890 C.2   216  VAL216      0.2592
     33  O         26.1410   63.5200   44.9530 O.2   216  VAL216     -0.2718
     34  CB        23.7820   65.6970   44.8540 C.3   216  VAL216      0.0266
     35  CG1       24.5130   65.6120   43.5260 C.3   216  VAL216      0.0020
     36  CG2       22.2850   65.9060   44.6320 C.3   216  VAL216      0.0020
     37  N         26.1470   64.7680   46.8200 N.am  217  PHE217     -0.1976
     38  CA        27.5850   64.6250   47.0360 C.3   217  PHE217      0.1639
     39  C         27.8650   64.1470   48.4600 C.2   217  PHE217      0.2290
     40  O         28.5120   64.8400   49.2410 O.2   217  PHE217     -0.2864
     41  CB        28.3010   65.9580   46.7820 C.3   217  PHE217      0.0560
     42  CG        28.1400   66.4860   45.3760 C.ar  217  PHE217     -0.0200
     43  CD1       28.3190   65.6480   44.2750 C.ar  217  PHE217     -0.0042
     44  CD2       27.8420   67.8310   45.1530 C.ar  217  PHE217     -0.0042
     45  CE1       28.2040   66.1420   42.9700 C.ar  217  PHE217     -0.0003
     46  CE2       27.7270   68.3380   43.8470 C.ar  217  PHE217     -0.0003
     47  CZ        27.9080   67.4910   42.7560 C.ar  217  PHE217     -0.0000
     48  N         23.5290   71.0850   46.0820 N.3   239  PHE239     -0.1241
     49  CA        24.8010   70.7100   45.4880 C.3   239  PHE239      0.1605
     50  C         25.9890   71.2770   46.2490 C.2   239  PHE239      0.2264
     51  O         26.0820   71.0680   47.4530 O.2   239  PHE239     -0.2867
     52  CB        24.7720   71.1340   44.0240 C.3   239  PHE239      0.0534
     53  CG        23.6230   70.5230   43.2620 C.ar  239  PHE239     -0.0203
     54  CD1       23.7210   69.2270   42.7430 C.ar  239  PHE239     -0.0042
     55  CD2       22.4120   71.2070   43.1300 C.ar  239  PHE239     -0.0042
     56  CE1       22.6320   68.6190   42.1070 C.ar  239  PHE239     -0.0003
     57  CE2       21.3200   70.6140   42.5000 C.ar  239  PHE239     -0.0003
     58  CZ        21.4290   69.3160   41.9870 C.ar  239  PHE239     -0.0000
     59  N         26.1640   77.0720   45.8860 N.3   243  GLN243     -0.1245
     60  CA        25.0510   77.0220   44.9470 C.3   243  GLN243      0.1566
     61  C         23.8020   76.9990   45.8100 C.2   243  GLN243      0.2260
     62  O         23.4930   75.9820   46.4300 O.2   243  GLN243     -0.2867
     63  CB        25.1260   75.7580   44.0780 C.3   243  GLN243      0.0367
     64  CG        26.2300   75.8070   43.0310 C.3   243  GLN243      0.0905
     65  CD        26.4630   74.4760   42.3230 C.2   243  GLN243      0.2608
     66  OE1       26.8080   73.4700   42.9530 O.2   243  GLN243     -0.2717
     67  NE2       26.2900   74.4710   41.0050 N.am  243  GLN243     -0.0878
     68  N         18.2370   73.2760   28.4100 N.3   273  ARG273     -0.1245
     69  CA        18.4730   72.0910   29.2310 C.3   273  ARG273      0.1563
     70  C         18.1390   72.5430   30.6470 C.2   273  ARG273      0.2260
     71  O         18.8810   73.3240   31.2290 O.2   273  ARG273     -0.2867
     72  CB        19.9490   71.6620   29.1640 C.3   273  ARG273      0.0307
     73  CG        20.3200   70.4990   30.0990 C.3   273  ARG273      0.0489
     74  CD        21.7320   69.9860   29.8160 C.3   273  ARG273      0.2205
     75  NE        22.1370   68.8980   30.7140 N.pl3 273  ARG273     -0.0865
     76  CZ        22.3720   69.0550   32.0150 C.cat 273  ARG273      0.5346
     77  NH1       22.2510   70.2520   32.5680 N.pl3 273  ARG273      0.1354
     78  NH2       22.7160   68.0240   32.7600 N.pl3 273  ARG273      0.1354
     79  N         18.5300   72.0360   33.8640 N.3   275  ASP275     -0.1225
     80  CA        19.4090   71.3630   34.8070 C.3   275  ASP275      0.1805
     81  C         18.7570   71.1770   36.1790 C.2   275  ASP275      0.2598
     82  O         18.1050   72.0800   36.6860 O.2   275  ASP275     -0.2718
     83  CB        20.6930   72.1840   34.9520 C.3   275  ASP275      0.1424
     84  CG        21.7490   71.4770   35.7730 C.2   275  ASP275      0.3668
     85  OD1       22.3790   70.5510   35.2330 O.co2 275  ASP275     -0.2456
     86  OD2       21.9460   71.8410   36.9550 O.co2 275  ASP275     -0.2456
     87  N         18.9320   69.9950   36.7690 N.am  276  SER276     -0.1952
     88  CA        18.3940   69.6960   38.0940 C.3   276  SER276      0.1924
     89  C         16.9350   70.0710   38.2640 C.2   276  SER276      0.2314
     90  O         16.5040   70.4100   39.3710 O.2   276  SER276     -0.2863
     91  CB        19.2120   70.4350   39.1520 C.3   276  SER276      0.2116
     92  OG        20.5850   70.0960   39.0460 O.3   276  SER276     -0.2180
     93  N         14.4380   68.9990   41.2680 N.3   279  TYR279     -0.1241
     94  CA        14.5320   69.5630   42.6190 C.3   279  TYR279      0.1605
     95  C         13.8040   70.8890   42.8740 C.2   279  TYR279      0.2264
     96  O         13.7480   71.3590   44.0210 O.2   279  TYR279     -0.2867
     97  CB        16.0040   69.7510   42.9990 C.3   279  TYR279      0.0534
     98  CG        16.8490   68.4920   42.9910 C.ar  279  TYR279     -0.0201
     99  CD1       17.5020   68.0630   41.8280 C.ar  279  TYR279     -0.0009
    100  CD2       17.0040   67.7280   44.1550 C.ar  279  TYR279     -0.0009
    101  CE1       18.2870   66.9060   41.8230 C.ar  279  TYR279      0.0417
    102  CE2       17.7880   66.5710   44.1600 C.ar  279  TYR279      0.0417
    103  CZ        18.4240   66.1650   42.9940 C.ar  279  TYR279      0.1957
    104  OH        19.1900   65.0170   43.0140 O.3   279  TYR279     -0.2866
    105  N         16.0310   67.3640   32.6200 N.3   317  GLN317     -0.1231
    106  CA        17.1790   66.5190   32.9500 C.3   317  GLN317      0.1698
    107  C         16.7390   65.3840   33.8770 C.2   317  GLN317      0.2592
    108  O         16.5580   64.2460   33.4340 O.2   317  GLN317     -0.2718
    109  CB        18.2860   67.3270   33.6170 C.3   317  GLN317      0.0381
    110  CG        19.5790   66.5220   33.7600 C.3   317  GLN317      0.0905
    111  CD        20.4580   67.0330   34.8670 C.2   317  GLN317      0.2608
    112  OE1       21.4070   66.3740   35.2680 O.2   317  GLN317     -0.2717
    113  NE2       20.1490   68.2180   35.3640 N.am  317  GLN317     -0.0878
    114  N         16.5850   65.6740   35.1620 N.am  318  ALA318     -0.1966
    115  CA        16.1030   64.6620   36.1130 C.3   318  ALA318      0.1728
    116  C         16.6750   63.2420   36.0130 C.2   318  ALA318      0.2616
    117  O         16.1760   62.4130   35.2420 O.2   318  ALA318     -0.2715
    118  CB        14.5770   64.5820   36.0230 C.3   318  ALA318      0.0334
    119  N         17.6990   62.9500   36.8090 N.am  319  ILE319     -0.1977
    120  CA        18.2910   61.6150   36.8150 C.3   319  ILE319      0.1596
    121  C         17.4840   60.8310   37.8380 C.2   319  ILE319      0.2287
    122  O         17.8590   60.7250   39.0030 O.2   319  ILE319     -0.2864
    123  CB        19.7530   61.6670   37.2440 C.3   319  ILE319      0.0276
    124  CG1       20.5030   62.6780   36.3730 C.3   319  ILE319      0.0022
    125  CG2       20.3800   60.2780   37.1170 C.3   319  ILE319      0.0022
    126  CD1       20.5360   62.3170   34.8970 C.3   319  ILE319      0.0001
    127  N         29.0000   65.0790   30.5770 N.3   386  HIS386     -0.1226
    128  CA        29.9410   65.7130   31.4900 C.3   386  HIS386      0.1752
    129  C         29.8210   65.1820   32.9110 C.2   386  HIS386      0.2596
    130  O         30.6800   65.4430   33.7560 O.2   386  HIS386     -0.2718
    131  CB        29.7300   67.2250   31.4980 C.3   386  HIS386      0.0759
    132  CG        28.3750   67.6440   31.9710 C.ar  386  HIS386      0.0818
    133  ND1       27.2210   67.3610   31.2730 N.ar  386  HIS386     -0.2268
    134  CD2       27.9900   68.3390   33.0660 C.ar  386  HIS386      0.1154
    135  CE1       26.1840   67.8650   31.9160 C.ar  386  HIS386      0.1986
    136  NE2       26.6230   68.4650   33.0070 N.ar  386  HIS386     -0.2212
    137  N         28.7600   64.4330   33.1820 N.am  387  ASP387     -0.1960
    138  CA        28.5840   63.8820   34.5160 C.3   387  ASP387      0.1840
    139  C         28.9470   62.4170   34.6420 C.2   387  ASP387      0.2622
    140  O         29.1780   61.7190   33.6480 O.2   387  ASP387     -0.2715
    141  CB        27.1470   64.0140   34.9970 C.3   387  ASP387      0.1450
    142  CG        26.7530   65.4280   35.2500 C.2   387  ASP387      0.3671
    143  OD1       27.5720   66.2140   35.7700 O.co2 387  ASP387     -0.2456
    144  OD2       25.6030   65.7440   34.9400 O.co2 387  ASP387     -0.2456
    145  N         28.9680   61.9910   35.9070 N.am  388  ASP388     -0.1971
    146  CA        29.2380   60.6280   36.3260 C.3   388  ASP388      0.1709
    147  C         28.0060   59.8620   35.8980 C.2   388  ASP388      0.2293
    148  O         26.9390   60.4560   35.7620 O.2   388  ASP388     -0.2864
    149  CB        29.3090   60.5750   37.8530 C.3   388  ASP388      0.1436
    150  CG        28.0400   61.1360   38.5060 C.2   388  ASP388      0.3671
    151  OD1       27.8180   62.3660   38.4400 O.co2 388  ASP388     -0.2456
    152  OD2       27.2520   60.3440   39.0680 O.co2 388  ASP388     -0.2456
    153  N         32.6270   57.4750   41.9670 N.3   430  PHE430     -0.1241
    154  CA        32.3190   58.8540   42.2770 C.3   430  PHE430      0.1605
    155  C         31.3760   58.9090   43.4760 C.2   430  PHE430      0.2264
    156  O         30.2780   58.3460   43.4480 O.2   430  PHE430     -0.2867
    157  CB        31.6860   59.5370   41.0690 C.3   430  PHE430      0.0534
    158  CG        31.4640   61.0040   41.2620 C.ar  430  PHE430     -0.0203
    159  CD1       32.5360   61.8490   41.5290 C.ar  430  PHE430     -0.0042
    160  CD2       30.1770   61.5410   41.2110 C.ar  430  PHE430     -0.0042
    161  CE1       32.3320   63.2060   41.7480 C.ar  430  PHE430     -0.0003
    162  CE2       29.9670   62.8970   41.4260 C.ar  430  PHE430     -0.0003
    163  CZ        31.0500   63.7300   41.6970 C.ar  430  PHE430     -0.0000
    164  N         26.9170   54.1430   43.5020 N.3   434  HIS434     -0.1241
    165  CA        26.5270   55.5230   43.2940 C.3   434  HIS434      0.1621
    166  C         26.7490   56.0080   41.8650 C.2   434  HIS434      0.2264
    167  O         25.7860   56.1690   41.1020 O.2   434  HIS434     -0.2867
    168  CB        27.2590   56.4280   44.2880 C.3   434  HIS434      0.0745
    169  CG        26.7680   57.8400   44.2830 C.ar  434  HIS434      0.0817
    170  ND1       27.2610   58.7970   43.4220 N.ar  434  HIS434     -0.2268
    171  CD2       25.7880   58.4430   44.9980 C.ar  434  HIS434      0.1154
    172  CE1       26.6050   59.9290   43.6060 C.ar  434  HIS434      0.1986
    173  NE2       25.7060   59.7410   44.5560 N.ar  434  HIS434     -0.2212
    174  N         34.8490   64.1470   38.3930 N.3   506  ARG506     -0.1245
    175  CA        34.2420   64.2390   37.0700 C.3   506  ARG506      0.1563
    176  C         35.1390   64.8720   35.9900 C.2   506  ARG506      0.2260
    177  O         34.8630   64.7450   34.8030 O.2   506  ARG506     -0.2867
    178  CB        32.9110   64.9870   37.1700 C.3   506  ARG506      0.0307
    179  CG        31.8220   64.2030   37.8920 C.3   506  ARG506      0.0489
    180  CD        30.5450   65.0200   38.0080 C.3   506  ARG506      0.2205
    181  NE        30.7340   66.1960   38.8480 N.pl3 506  ARG506     -0.0865
    182  CZ        29.8640   67.1970   38.9470 C.cat 506  ARG506      0.5346
    183  NH1       28.7360   67.1630   38.2500 N.pl3 506  ARG506      0.1354
    184  NH2       30.1220   68.2340   39.7380 N.pl3 506  ARG506      0.1354
    185  N         36.3100   65.1300   31.1570 N.3   510  ARG510     -0.1245
    186  CA        36.0330   66.4590   30.6430 C.3   510  ARG510      0.1563
    187  C         37.3110   67.0070   30.0250 C.2   510  ARG510      0.2260
    188  O         37.7780   68.0820   30.3860 O.2   510  ARG510     -0.2867
    189  CB        35.5610   67.3700   31.7700 C.3   510  ARG510      0.0307
    190  CG        34.2590   66.9400   32.4320 C.3   510  ARG510      0.0489
    191  CD        33.9630   67.7970   33.6710 C.3   510  ARG510      0.2205
    192  NE        32.6650   67.4760   34.2780 N.pl3 510  ARG510     -0.0865
    193  CZ        32.1610   68.1100   35.3370 C.cat 510  ARG510      0.5346
    194  NH1       32.8460   69.0890   35.9010 N.pl3 510  ARG510      0.1354
    195  NH2       30.9700   67.7720   35.8270 N.pl3 510  ARG510      0.1354
@<TRIPOS>BOND
     1    68    69    1
     2    72    69    1
     3    72    73    1
     4    69    70    1
     5    74    73    1
     6    74    75    1
     7   187   188    2
     8   187   186    1
     9   127   128    1
    10   186   185    1
    11   186   189    1
    12    70    71    2
    13    75    76    2
    14   133   135   ar
    15   133   132   ar
    16   128   131    1
    17   128   129    1
    18   131   132    1
    19   189   190    1
    20   135   136   ar
    21   132   134   ar
    22    76    77    1
    23    76    78    1
    24   190   191    1
    25   105   106    1
    26   129   137   am
    27   129   130    2
    28   106   109    1
    29   106   107    1
    30   136   134   ar
    31   137   138    1
    32   108   107    2
    33   109   110    1
    34   140   139    2
    35   191   192    1
    36    19    17   ar
    37    19    18   ar
    38   110   111    1
    39    79    80    1
    40   107   114   am
    41    17    15   ar
    42   192   193    2
    43    18    16   ar
    44   138   139    1
    45   138   141    1
    46   139   145   am
    47   177   176    2
    48    80    83    1
    49    80    81    1
    50   111   112    2
    51   111   113   am
    52   126   124    1
    53   144   142   ar
    54    83    84    1
    55   141   142    1
    56   114   115    1
    57    85    84   ar
    58   117   116    2
    59   142   143   ar
    60   193   195    1
    61   193   194    1
    62    15    14   ar
    63    16    14   ar
    64   148   147    2
    65    84    86   ar
    66   147   146    1
    67   145   146    1
    68   176   175    1
    69   116   115    1
    70   116   119   am
    71   118   115    1
    72    14    13    1
    73    81    82    2
    74    81    87   am
    75   146   149    1
    76   124   123    1
    77     9    10    1
    78    87    88    1
    79   119   120    1
    80   120   123    1
    81   120   121    1
    82   175   178    1
    83   175   174    1
    84   125   123    1
    85    10    13    1
    86    10    11    1
    87   178   179    1
    88     4     3    2
    89   121   122    2
    90   149   150    1
    91   179   180    1
    92     3     2    1
    93   180   181    1
    94    88    89    1
    95    88    91    1
    96   183   182    1
    97    89    90    2
    98    11    12    2
    99   151   150   ar
   100   150   152   ar
   101   181   182    2
   102   182   184    1
   103    92    91    1
   104     2     1    1
   105     2     5    1
   106     7     6   ar
   107     6     8   ar
   108     6     5    1
   109    23    22    2
   110    29    28   ar
   111    29    27   ar
   112    28    26   ar
   113    67    65   am
   114   157   158    1
   115   157   154    1
   116   167   166    2
   117    20    21    1
   118   160   158   ar
   119   160   162   ar
   120    27    25   ar
   121   158   159   ar
   122    93    94    1
   123    22    21    1
   124   162   163   ar
   125   159   161   ar
   126    26    25   ar
   127   163   161   ar
   128   101    99   ar
   129   101   103   ar
   130    99    98   ar
   131   166   165    1
   132    25    24    1
   133   153   154    1
   134    58    56   ar
   135    58    57   ar
   136    21    24    1
   137    56    54   ar
   138   154   155    1
   139    65    66    2
   140    65    64    1
   141    57    55   ar
   142    94    95    1
   143    94    97    1
   144    54    53   ar
   145    47    45   ar
   146    47    46   ar
   147    95    96    2
   148    45    43   ar
   149    98    97    1
   150    98   100   ar
   151   103   104    1
   152   103   102   ar
   153    64    63    1
   154    55    53   ar
   155    53    52    1
   156   165   164    1
   157   165   168    1
   158   170   172   ar
   159   170   169   ar
   160   156   155    2
   161    35    34    1
   162   172   173   ar
   163    46    44   ar
   164    52    49    1
   165    63    60    1
   166   100   102   ar
   167    43    42   ar
   168   169   168    1
   169   169   171   ar
   170   173   171   ar
   171    36    34    1
   172    34    31    1
   173    60    61    1
   174    60    59    1
   175    33    32    2
   176    44    42   ar
   177    42    41    1
   178    49    48    1
   179    49    50    1
   180    31    32    1
   181    31    30    1
   182    32    37   am
   183    61    62    2
   184    50    51    2
   185    41    38    1
   186    37    38    1
   187    38    39    1
   188    39    40    2
