@<TRIPOS>MOLECULE
tmp/3czmA01.pdb
 99 92 0 0 0
SMALL
GASTEIGER

@<TRIPOS>ATOM
      1  N         40.1240   62.2450   69.0600 N.3    84  THR84      -0.1218
      2  CA        41.3980   62.7550   68.5690 C.3    84  THR84       0.1862
      3  C         42.3780   62.8750   69.7360 C.2    84  THR84       0.2287
      4  O         43.5910   62.9240   69.5450 O.2    84  THR84      -0.2866
      5  CB        41.2330   64.1440   67.8850 C.3    84  THR84       0.1770
      6  OG1       40.7200   65.0960   68.8260 O.3    84  THR84      -0.2211
      7  CG2       40.2800   64.0420   66.7050 C.3    84  THR84       0.0375
      8  N         49.9750   64.2530   74.2620 N.3    94  TRP94      -0.1241
      9  CA        49.2290   63.6000   73.1880 C.3    94  TRP94       0.1605
     10  C         49.9660   62.3610   72.6700 C.2    94  TRP94       0.2264
     11  O         51.1570   62.4120   72.3790 O.2    94  TRP94      -0.2867
     12  CB        49.0050   64.5840   72.0390 C.3    94  TRP94       0.0550
     13  CG        48.2680   64.0120   70.8530 C.ar   94  TRP94       0.0003
     14  CD1       46.9360   63.7090   70.7740 C.ar   94  TRP94       0.0946
     15  CD2       48.8280   63.6920   69.5730 C.ar   94  TRP94       0.0152
     16  NE1       46.6330   63.2280   69.5200 N.ar   94  TRP94      -0.2442
     17  CE2       47.7760   63.2060   68.7640 C.ar   94  TRP94       0.0810
     18  CE3       50.1190   63.7720   69.0310 C.ar   94  TRP94       0.0012
     19  CZ2       47.9750   62.8010   67.4340 C.ar   94  TRP94       0.0191
     20  CZ3       50.3180   63.3680   67.7100 C.ar   94  TRP94       0.0001
     21  CH2       49.2490   62.8890   66.9280 C.ar   94  TRP94       0.0015
     22  N         49.0370   58.8060   70.1020 N.3    96  ARG96      -0.1245
     23  CA        48.0690   58.0520   69.3110 C.3    96  ARG96       0.1563
     24  C         47.7260   56.7180   69.9790 C.2    96  ARG96       0.2260
     25  O         46.5790   56.2820   69.9500 O.2    96  ARG96      -0.2867
     26  CB        48.6160   57.8030   67.8990 C.3    96  ARG96       0.0307
     27  CG        49.0040   59.0730   67.1400 C.3    96  ARG96       0.0489
     28  CD        49.4930   58.7360   65.7390 C.3    96  ARG96       0.2205
     29  NE        49.8850   59.9150   64.9650 N.pl3  96  ARG96      -0.0865
     30  CZ        51.0570   60.5360   65.0710 C.cat  96  ARG96       0.5346
     31  NH1       51.9700   60.1060   65.9400 N.pl3  96  ARG96       0.1354
     32  NH2       51.3210   61.5860   64.2990 N.pl3  96  ARG96       0.1354
     33  N         44.6980   56.3340   72.4540 N.3    99  LEU99      -0.1245
     34  CA        43.3230   56.3720   71.9700 C.3    99  LEU99       0.1561
     35  C         42.7510   54.9690   71.7850 C.2    99  LEU99       0.2260
     36  O         41.5610   54.8090   71.5020 O.2    99  LEU99      -0.2867
     37  CB        43.2550   57.1460   70.6500 C.3    99  LEU99       0.0270
     38  CG        43.7600   58.5960   70.6710 C.3    99  LEU99       0.0019
     39  CD1       43.7720   59.1620   69.2550 C.3    99  LEU99       0.0001
     40  CD2       42.8730   59.4360   71.5780 C.3    99  LEU99       0.0001
     41  N         42.7620   56.6230   64.7470 N.3   128  ASN128     -0.1240
     42  CA        43.9600   56.1660   65.4600 C.3   128  ASN128      0.1653
     43  C         43.6120   55.3140   66.6780 C.2   128  ASN128      0.2266
     44  O         42.5210   55.4400   67.2300 O.2   128  ASN128     -0.2867
     45  CB        44.7850   57.3650   65.9270 C.3   128  ASN128      0.1155
     46  CG        45.7980   57.7870   64.9060 C.2   128  ASN128      0.2627
     47  OD1       46.5210   56.9450   64.3660 O.2   128  ASN128     -0.2716
     48  ND2       45.8710   59.0870   64.6290 N.am  128  ASN128     -0.0877
     49  N         50.1900   60.7660   54.3300 N.3   155  LEU155     -0.1245
     50  CA        50.2970   62.0150   55.0760 C.3   155  LEU155      0.1561
     51  C         51.7440   62.2290   55.5480 C.2   155  LEU155      0.2260
     52  O         52.3260   63.2970   55.3380 O.2   155  LEU155     -0.2867
     53  CB        49.3470   61.9920   56.2790 C.3   155  LEU155      0.0270
     54  CG        49.4620   63.1440   57.2820 C.3   155  LEU155      0.0019
     55  CD1       49.1620   64.4640   56.5910 C.3   155  LEU155      0.0001
     56  CD2       48.5050   62.9030   58.4480 C.3   155  LEU155      0.0001
     57  N         54.6020   65.2550   54.3780 N.3   159  ARG159     -0.1245
     58  CA        55.3960   66.1240   55.2370 C.3   159  ARG159      0.1563
     59  C         56.8610   66.0100   54.8490 C.2   159  ARG159      0.2260
     60  O         57.5470   67.0100   54.6290 O.2   159  ARG159     -0.2867
     61  CB        55.1820   65.7220   56.7000 C.3   159  ARG159      0.0307
     62  CG        53.8260   66.1730   57.2060 C.3   159  ARG159      0.0489
     63  CD        53.2440   65.2940   58.2860 C.3   159  ARG159      0.2205
     64  NE        52.0280   65.9120   58.8060 N.pl3 159  ARG159     -0.0865
     65  CZ        51.2340   65.3760   59.7280 C.cat 159  ARG159      0.5346
     66  NH1       51.5180   64.1970   60.2650 N.pl3 159  ARG159      0.1354
     67  NH2       50.1620   66.0400   60.1360 N.pl3 159  ARG159      0.1354
     68  N         52.2750   54.2170   62.0420 N.3   183  HIS183     -0.1241
     69  CA        52.0610   55.6610   62.0790 C.3   183  HIS183      0.1621
     70  C         52.2270   56.1380   63.5200 C.2   183  HIS183      0.2264
     71  O         51.2810   56.1390   64.3000 O.2   183  HIS183     -0.2867
     72  CB        50.6640   55.9990   61.5460 C.3   183  HIS183      0.0745
     73  CG        50.3730   57.4680   61.4900 C.ar  183  HIS183      0.0817
     74  ND1       51.1690   58.3600   60.8030 N.ar  183  HIS183     -0.2268
     75  CD2       49.3630   58.1970   62.0230 C.ar  183  HIS183      0.1154
     76  CE1       50.6620   59.5750   60.9160 C.ar  183  HIS183      0.1986
     77  NE2       49.5660   59.5040   61.6510 N.ar  183  HIS183     -0.2212
     78  N         52.8370   65.6250   63.4110 N.3   226  GLY226     -0.1225
     79  CA        51.5010   65.5200   63.9750 C.3   226  GLY226      0.1811
     80  C         51.3560   66.1500   65.3530 C.2   226  GLY226      0.2280
     81  O         50.4010   66.8890   65.6010 O.2   226  GLY226     -0.2866
     82  N         43.3270   67.8610   66.0510 N.3   237  SER237     -0.1202
     83  CA        44.5270   67.6090   65.2690 C.3   237  SER237      0.2020
     84  C         44.3690   67.9740   63.7880 C.2   237  SER237      0.2618
     85  O         43.3240   68.4670   63.3610 O.2   237  SER237     -0.2717
     86  CB        44.9310   66.1400   65.4250 C.3   237  SER237      0.2103
     87  OG        43.7920   65.3060   65.5820 O.3   237  SER237     -0.2182
     88  N         45.4200   67.7340   63.0110 N.am  238  ALA238     -0.1979
     89  CA        45.4250   68.0510   61.5830 C.3   238  ALA238      0.1597
     90  C         44.2500   67.4410   60.8360 C.2   238  ALA238      0.2287
     91  O         43.8290   66.3210   61.1400 O.2   238  ALA238     -0.2864
     92  CB        46.7300   67.5790   60.9540 C.3   238  ALA238      0.0319
     93  N         45.3590   65.4910   56.0310 N.3   242  PRO242     -0.2116
     94  CA        44.8050   64.1570   56.2770 C.3   242  PRO242      0.1372
     95  C         43.5880   63.8890   55.3900 C.2   242  PRO242      0.2244
     96  O         43.4330   62.7990   54.8520 O.2   242  PRO242     -0.2868
     97  CB        44.4500   64.1920   57.7670 C.3   242  PRO242      0.0268
     98  CG        45.5130   65.0830   58.3330 C.3   242  PRO242      0.0207
     99  CD        45.5840   66.2070   57.3030 C.3   242  PRO242      0.0892
@<TRIPOS>BOND
     1    49    50    1
     2    57    58    1
     3    60    59    2
     4    59    58    1
     5    96    95    2
     6    50    51    1
     7    50    53    1
     8    58    61    1
     9    52    51    2
    10    95    94    1
    11    93    94    1
    12    93    99    1
    13    94    97    1
    14    53    54    1
    15    55    54    1
    16    61    62    1
    17    62    63    1
    18    54    56    1
    19    99    98    1
    20    97    98    1
    21    63    64    1
    22    64    65    2
    23    65    67    1
    24    65    66    1
    25    74    76   ar
    26    74    73   ar
    27    90    91    2
    28    90    89    1
    29    76    77   ar
    30    92    89    1
    31    73    72    1
    32    73    75   ar
    33    72    69    1
    34    89    88    1
    35    77    75   ar
    36    68    69    1
    37    69    70    1
    38    88    84   am
    39    85    84    2
    40    78    79    1
    41    70    71    2
    42    84    83    1
    43    79    80    1
    44    32    30    1
    45    47    46    2
    46    48    46   am
    47    41    42    1
    48    46    45    1
    49    29    30    2
    50    29    28    1
    51    30    31    1
    52    83    86    1
    53    83    82    1
    54    80    81    2
    55    86    87    1
    56    42    45    1
    57    42    43    1
    58    28    27    1
    59    43    44    2
    60     7     5    1
    61    21    19   ar
    62    21    20   ar
    63    27    26    1
    64    19    17   ar
    65    20    18   ar
    66     5     2    1
    67     5     6    1
    68    26    23    1
    69     2     1    1
    70     2     3    1
    71    17    16   ar
    72    17    15   ar
    73    18    15   ar
    74    39    38    1
    75    23    24    1
    76    23    22    1
    77    16    14   ar
    78     4     3    2
    79    15    13   ar
    80    25    24    2
    81    37    38    1
    82    37    34    1
    83    38    40    1
    84    14    13   ar
    85    13    12    1
    86    36    35    2
    87    35    34    1
    88    34    33    1
    89    12     9    1
    90    11    10    2
    91    10     9    1
    92     9     8    1
