@<TRIPOS>MOLECULE
tmp/3czpB00.pdb
 70 67 0 0 0
SMALL
GASTEIGER

@<TRIPOS>ATOM
      1  N          5.8720   58.5100   18.0620 N.3   265  ASP265     -0.1225
      2  CA         7.0750   59.1980   17.6150 C.3   265  ASP265      0.1805
      3  C          8.2220   58.8510   18.5810 C.2   265  ASP265      0.2598
      4  O          8.0480   58.9130   19.8100 O.2   265  ASP265     -0.2718
      5  CB         6.8560   60.7370   17.6140 C.3   265  ASP265      0.1424
      6  CG         5.8030   61.1960   16.5640 C.2   265  ASP265      0.3668
      7  OD1        5.7920   60.6390   15.4770 O.co2 265  ASP265     -0.2456
      8  OD2        4.9480   62.0490   16.8390 O.co2 265  ASP265     -0.2456
      9  N          9.3960   58.5830   17.9900 N.am  266  ALA266     -0.1966
     10  CA        10.6320   58.1660   18.6510 C.3   266  ALA266      0.1728
     11  C         10.5690   56.7400   19.2780 C.2   266  ALA266      0.2616
     12  O         11.4380   56.3860   20.0980 O.2   266  ALA266     -0.2715
     13  CB        11.0860   59.2350   19.6680 C.3   266  ALA266      0.0334
     14  N          9.5560   55.9310   18.9200 N.am  267  ALA267     -0.1963
     15  CA         9.4130   54.5510   19.4690 C.3   267  ALA267      0.1728
     16  C         10.4550   53.5810   18.8800 C.2   267  ALA267      0.2617
     17  O         10.7740   52.5530   19.4740 O.2   267  ALA267     -0.2715
     18  CB         7.9550   54.0040   19.3090 C.3   267  ALA267      0.0334
     19  N         11.0030   53.9290   17.7210 N.am  268  GLY268     -0.1940
     20  CA        12.1190   53.2140   17.0990 C.3   268  GLY268      0.2014
     21  C         11.7140   52.3990   15.8850 C.2   268  GLY268      0.2639
     22  O         12.2060   51.3170   15.6950 O.2   268  GLY268     -0.2714
     23  N         10.8000   52.9050   15.0890 N.am  269  LYS269     -0.1963
     24  CA        10.2590   52.1670   13.9620 C.3   269  LYS269      0.1728
     25  C         11.2990   51.9590   12.8620 C.2   269  LYS269      0.2617
     26  O         11.4540   50.8730   12.3090 O.2   269  LYS269     -0.2715
     27  CB         9.0290   52.9220   13.3600 C.3   269  LYS269      0.0311
     28  CG         7.6460   52.5470   13.9730 C.3   269  LYS269      0.0038
     29  CD         7.0510   53.6360   14.8370 C.3   269  LYS269      0.0206
     30  CE         6.6690   54.8450   13.9880 C.3   269  LYS269      0.1093
     31  NZ         6.7730   56.0820   14.7830 N.3   269  LYS269     -0.1314
     32  N         12.0140   53.0240   12.5320 N.am  270  GLY270     -0.1940
     33  CA        13.0930   52.9570   11.5560 C.3   270  GLY270      0.2014
     34  C         14.1690   51.9680   11.8900 C.2   270  GLY270      0.2639
     35  O         14.6240   51.2780   11.0070 O.2   270  GLY270     -0.2714
     36  N         14.6040   51.9220   13.1520 N.am  271  GLY271     -0.1954
     37  CA        15.6220   50.9610   13.5790 C.3   271  GLY271      0.1869
     38  C         15.1040   49.5140   13.5800 C.2   271  GLY271      0.2309
     39  O         15.8320   48.5920   13.2500 O.2   271  GLY271     -0.2863
     40  N          5.9520   51.9260    6.2130 N.3   320  ASP320     -0.1239
     41  CA         6.3530   52.7090    7.3510 C.3   320  ASP320      0.1674
     42  C          5.3070   53.7770    7.4520 C.2   320  ASP320      0.2266
     43  O          5.3560   54.8160    6.7300 O.2   320  ASP320     -0.2867
     44  CB         7.7640   53.3140    7.1850 C.3   320  ASP320      0.1410
     45  CG         8.2040   54.1370    8.4000 C.2   320  ASP320      0.3668
     46  OD1        7.5880   54.0030    9.4940 O.co2 320  ASP320     -0.2456
     47  OD2        9.1410   54.9730    8.2750 O.co2 320  ASP320     -0.2456
     48  N         17.7870   63.3490   21.0240 N.3   380  ARG380     -0.1245
     49  CA        17.7960   63.5960   19.5790 C.3   380  ARG380      0.1563
     50  C         18.1320   65.0560   19.3250 C.2   380  ARG380      0.2260
     51  O         18.9570   65.3410   18.4360 O.2   380  ARG380     -0.2867
     52  CB        16.4640   63.1960   18.9340 C.3   380  ARG380      0.0307
     53  CG        16.3480   61.6830   18.7090 C.3   380  ARG380      0.0489
     54  CD        15.0200   61.2390   18.1570 C.3   380  ARG380      0.2205
     55  NE        14.6750   62.1180   17.0420 N.pl3 380  ARG380     -0.0865
     56  CZ        13.5640   62.0620   16.3220 C.cat 380  ARG380      0.5346
     57  NH1       12.6510   61.1120   16.5440 N.pl3 380  ARG380      0.1354
     58  NH2       13.3800   62.9550   15.3590 N.pl3 380  ARG380      0.1354
     59  N         17.7450   64.1520   13.0380 N.3   388  TYR388     -0.1241
     60  CA        17.1390   63.9130   14.3630 C.3   388  TYR388      0.1605
     61  C         16.4010   65.0930   15.0200 C.2   388  TYR388      0.2264
     62  O         15.8210   64.9160   16.0860 O.2   388  TYR388     -0.2867
     63  CB        18.1660   63.3470   15.3210 C.3   388  TYR388      0.0534
     64  CG        18.5680   61.9110   15.0030 C.ar  388  TYR388     -0.0201
     65  CD1       17.6080   60.8950   14.9460 C.ar  388  TYR388     -0.0009
     66  CD2       19.8770   61.5690   14.7930 C.ar  388  TYR388     -0.0009
     67  CE1       17.9500   59.5890   14.6790 C.ar  388  TYR388      0.0417
     68  CE2       20.2320   60.2550   14.5170 C.ar  388  TYR388      0.0417
     69  CZ        19.2560   59.2710   14.4630 C.ar  388  TYR388      0.1957
     70  OH        19.5850   57.9540   14.2110 O.3   388  TYR388     -0.2866
@<TRIPOS>BOND
     1    40    41    1
     2    43    42    2
     3    44    41    1
     4    44    45    1
     5    41    42    1
     6    47    45   ar
     7    45    46   ar
     8    35    34    2
     9    33    34    1
    10    33    32    1
    11    34    36   am
    12    26    25    2
    13    32    25   am
    14    25    24    1
    15    59    60    1
    16    36    37    1
    17    39    38    2
    18    27    24    1
    19    27    28    1
    20    37    38    1
    21    24    23    1
    22    28    29    1
    23    30    31    1
    24    30    29    1
    25    70    69    1
    26    60    61    1
    27    60    63    1
    28    69    68   ar
    29    69    67   ar
    30    68    66   ar
    31    67    65   ar
    32    66    64   ar
    33    65    64   ar
    34    64    63    1
    35    61    62    2
    36    23    21   am
    37    58    56    1
    38     7     6   ar
    39    22    21    2
    40    21    20    1
    41    56    57    1
    42    56    55    2
    43     6     8   ar
    44     6     5    1
    45    55    54    1
    46    20    19    1
    47     5     2    1
    48     2     1    1
    49     2     3    1
    50    19    16   am
    51     9     3   am
    52     9    10    1
    53    54    53    1
    54    51    50    2
    55     3     4    2
    56    10    11    1
    57    10    13    1
    58    53    52    1
    59    16    15    1
    60    16    17    2
    61    14    11   am
    62    14    15    1
    63    52    49    1
    64    11    12    2
    65    18    15    1
    66    50    49    1
    67    49    48    1
