@<TRIPOS>MOLECULE
tmp/3czrA02.pdb
 154 148 0 0 0
SMALL
GASTEIGER

@<TRIPOS>ATOM
      1  N         49.1580  -29.9650   43.9210 N.3   102  ILE102     -0.1245
      2  CA        50.6130  -30.1000   43.8460 C.3   102  ILE102      0.1561
      3  C         50.9590  -31.5740   44.0670 C.2   102  ILE102      0.2260
      4  O         50.1270  -32.3330   44.5300 O.2   102  ILE102     -0.2867
      5  CB        51.3340  -29.1970   44.9060 C.3   102  ILE102      0.0252
      6  CG1       50.5900  -29.2260   46.2470 C.3   102  ILE102      0.0019
      7  CG2       51.4330  -27.7410   44.4210 C.3   102  ILE102      0.0019
      8  CD1       51.4010  -28.6860   47.4230 C.3   102  ILE102      0.0001
      9  N         54.9460  -33.2820   48.7170 N.3   105  THR105     -0.1203
     10  CA        56.2990  -32.8290   48.9700 C.3   105  THR105      0.1994
     11  C         56.5010  -32.4050   50.4190 C.2   105  THR105      0.2619
     12  O         55.5790  -31.9730   51.1170 O.2   105  THR105     -0.2717
     13  CB        56.6880  -31.7200   47.9780 C.3   105  THR105      0.1784
     14  OG1       57.4550  -30.7200   48.6350 O.3   105  THR105     -0.2211
     15  CG2       55.4350  -31.0970   47.4300 C.3   105  THR105      0.0376
     16  N         57.7150  -32.5770   50.8880 N.am  106  SER106     -0.1937
     17  CA        57.9780  -32.3620   52.2830 C.3   106  SER106      0.2055
     18  C         59.3050  -31.6170   52.3040 C.2   106  SER106      0.2642
     19  O         60.0200  -31.6570   51.3070 O.2   106  SER106     -0.2714
     20  CB        58.1130  -33.7240   52.9660 C.3   106  SER106      0.2130
     21  OG        59.2680  -34.3240   52.4220 O.3   106  SER106     -0.2179
     22  N         59.6340  -30.9660   53.4240 N.am  107  LEU107     -0.1977
     23  CA        60.8530  -30.1890   53.5290 C.3   107  LEU107      0.1596
     24  C         62.0600  -31.0910   53.5030 C.2   107  LEU107      0.2287
     25  O         62.1140  -32.0320   54.2690 O.2   107  LEU107     -0.2864
     26  CB        60.8400  -29.3840   54.8350 C.3   107  LEU107      0.0297
     27  CG        59.7170  -28.3430   54.9510 C.3   107  LEU107      0.0022
     28  CD1       59.4390  -27.9520   56.3880 C.3   107  LEU107      0.0001
     29  CD2       60.0660  -27.1100   54.1120 C.3   107  LEU107      0.0001
     30  N         52.7830  -19.4750   45.9480 N.3   151  SER151     -0.1202
     31  CA        53.4050  -19.5800   47.2330 C.3   151  SER151      0.2020
     32  C         54.4390  -18.4830   47.3970 C.2   151  SER151      0.2619
     33  O         54.9490  -17.9460   46.3900 O.2   151  SER151     -0.2717
     34  CB        54.1450  -20.9140   47.2950 C.3   151  SER151      0.2103
     35  OG        53.3180  -21.9840   46.8500 O.3   151  SER151     -0.2182
     36  N         54.7960  -18.1770   48.6490 N.am  152  LEU152     -0.1965
     37  CA        55.9140  -17.3010   48.8890 C.3   152  LEU152      0.1728
     38  C         57.1580  -17.8200   48.2180 C.2   152  LEU152      0.2616
     39  O         58.0250  -17.0420   47.7770 O.2   152  LEU152     -0.2715
     40  CB        56.2110  -17.1840   50.3910 C.3   152  LEU152      0.0311
     41  CG        55.1250  -16.7100   51.3630 C.3   152  LEU152      0.0022
     42  CD1       55.6650  -16.7740   52.8210 C.3   152  LEU152      0.0001
     43  CD2       54.6350  -15.2940   51.0380 C.3   152  LEU152      0.0001
     44  N         57.3210  -19.1360   48.2640 N.am  153  ALA153     -0.1977
     45  CA        58.4500  -19.7710   47.6160 C.3   153  ALA153      0.1597
     46  C         58.2820  -19.6610   46.0860 C.2   153  ALA153      0.2287
     47  O         59.1370  -20.1120   45.3260 O.2   153  ALA153     -0.2864
     48  CB        58.5410  -21.2200   48.0470 C.3   153  ALA153      0.0319
     49  N         63.7230  -19.8560   49.4620 N.3   158  TYR158     -0.1228
     50  CA        63.7930  -20.4410   50.8030 C.3   158  TYR158      0.1721
     51  C         64.5670  -21.7300   50.6860 C.2   158  TYR158      0.2437
     52  O         64.5420  -22.3360   49.6230 O.2   158  TYR158     -0.2733
     53  CB        62.4030  -20.8420   51.2530 C.3   158  TYR158      0.0547
     54  CG        61.4990  -19.6980   51.5610 C.ar  158  TYR158     -0.0200
     55  CD1       60.8090  -19.0640   50.5520 C.ar  158  TYR158     -0.0009
     56  CD2       61.3120  -19.2670   52.8800 C.ar  158  TYR158     -0.0009
     57  CE1       59.9570  -18.0250   50.8270 C.ar  158  TYR158      0.0417
     58  CE2       60.4520  -18.2240   53.1710 C.ar  158  TYR158      0.0417
     59  CZ        59.7820  -17.5920   52.1400 C.ar  158  TYR158      0.1957
     60  OH        58.9170  -16.5390   52.4050 O.3   158  TYR158     -0.2866
     61  N         65.2080  -22.1980   51.7870 N.am  159  PRO159     -0.2718
     62  CA        65.8500  -23.5020   51.6940 C.3   159  PRO159      0.1535
     63  C         64.7660  -24.5560   51.8360 C.2   159  PRO159      0.2598
     64  O         63.6380  -24.2100   52.2020 O.2   159  PRO159     -0.2715
     65  CB        66.8010  -23.5200   52.9100 C.3   159  PRO159      0.0310
     66  CG        66.3920  -22.3670   53.8160 C.3   159  PRO159      0.0237
     67  CD        65.1920  -21.6870   53.1770 C.3   159  PRO159      0.0939
     68  N         65.0840  -25.8120   51.5010 N.am  160  MET160     -0.1964
     69  CA        64.2080  -26.9710   51.8050 C.3   160  MET160      0.1736
     70  C         63.0840  -27.1790   50.8050 C.2   160  MET160      0.2616
     71  O         62.3650  -28.1720   50.8810 O.2   160  MET160     -0.2715
     72  CB        63.5770  -26.8530   53.2160 C.3   160  MET160      0.0427
     73  CG        64.3020  -27.5990   54.3200 C.3   160  MET160      0.0599
     74  SD        66.1040  -27.6540   54.1430 S.3   160  MET160     -0.1393
     75  CE        66.4390  -28.6750   55.5870 C.3   160  MET160      0.0692
     76  N         62.9050  -26.2340   49.8880 N.am  161  VAL161     -0.1977
     77  CA        61.8240  -26.3430   48.9030 C.3   161  VAL161      0.1596
     78  C         62.2490  -26.0480   47.4420 C.2   161  VAL161      0.2287
     79  O         61.5240  -25.4240   46.6910 O.2   161  VAL161     -0.2864
     80  CB        60.5740  -25.5300   49.3210 C.3   161  VAL161      0.0276
     81  CG1       59.9120  -26.1590   50.5540 C.3   161  VAL161      0.0022
     82  CG2       60.9030  -24.0290   49.5390 C.3   161  VAL161      0.0022
     83  N         60.0240  -27.5660   44.5630 N.3   164  TYR164     -0.1241
     84  CA        58.7260  -26.8970   44.7330 C.3   164  TYR164      0.1605
     85  C         58.8010  -25.4390   44.2530 C.2   164  TYR164      0.2264
     86  O         57.9290  -24.9490   43.5430 O.2   164  TYR164     -0.2867
     87  CB        58.3740  -26.9080   46.2140 C.3   164  TYR164      0.0534
     88  CG        57.0810  -26.2170   46.5910 C.ar  164  TYR164     -0.0201
     89  CD1       55.8990  -26.9090   46.5930 C.ar  164  TYR164     -0.0009
     90  CD2       57.0590  -24.8920   46.9700 C.ar  164  TYR164     -0.0009
     91  CE1       54.7190  -26.3070   46.9480 C.ar  164  TYR164      0.0417
     92  CE2       55.8700  -24.2690   47.3370 C.ar  164  TYR164      0.0417
     93  CZ        54.7100  -24.9900   47.3290 C.ar  164  TYR164      0.1957
     94  OH        53.4980  -24.4210   47.6730 O.3   164  TYR164     -0.2866
     95  N         50.5200  -17.3650   48.5060 N.3   196  LEU196     -0.1231
     96  CA        50.1260  -17.7070   49.8780 C.3   196  LEU196      0.1693
     97  C         51.3190  -17.9810   50.7570 C.2   196  LEU196      0.2593
     98  O         52.3160  -18.5530   50.3220 O.2   196  LEU196     -0.2718
     99  CB        49.1890  -18.9270   49.8850 C.3   196  LEU196      0.0284
    100  CG        48.0860  -18.8420   48.8370 C.3   196  LEU196      0.0019
    101  CD1       47.2440  -20.1320   48.8120 C.3   196  LEU196      0.0001
    102  CD2       47.1790  -17.6310   49.0390 C.3   196  LEU196      0.0001
    103  N         51.2200  -17.5750   52.0150 N.am  197  GLY197     -0.1942
    104  CA        52.1590  -18.0950   53.0260 C.3   197  GLY197      0.2014
    105  C         51.7030  -19.3960   53.6450 C.2   197  GLY197      0.2639
    106  O         50.7310  -20.0130   53.1900 O.2   197  GLY197     -0.2714
    107  N         52.3930  -19.8180   54.7040 N.am  198  LEU198     -0.1963
    108  CA        52.0070  -21.0160   55.4460 C.3   198  LEU198      0.1728
    109  C         50.5440  -20.9740   55.8540 C.2   198  LEU198      0.2616
    110  O         50.0770  -20.0340   56.4910 O.2   198  LEU198     -0.2715
    111  CB        52.8620  -21.1690   56.7060 C.3   198  LEU198      0.0311
    112  CG        52.6610  -22.4540   57.5100 C.3   198  LEU198      0.0022
    113  CD1       53.1740  -23.6590   56.6860 C.3   198  LEU198      0.0001
    114  CD2       53.4050  -22.3270   58.8400 C.3   198  LEU198      0.0001
    115  N         49.8180  -22.0120   55.4630 N.am  199  ILE199     -0.1977
    116  CA        48.4070  -22.1210   55.7610 C.3   199  ILE199      0.1596
    117  C         48.1560  -23.4150   56.5690 C.2   199  ILE199      0.2287
    118  O         48.8530  -24.4290   56.3990 O.2   199  ILE199     -0.2864
    119  CB        47.6100  -22.1400   54.4470 C.3   199  ILE199      0.0276
    120  CG1       48.0460  -20.9660   53.5600 C.3   199  ILE199      0.0022
    121  CG2       46.1280  -22.0400   54.7140 C.3   199  ILE199      0.0022
    122  CD1       47.5550  -19.6470   54.0880 C.3   199  ILE199      0.0001
    123  N         48.2230  -31.3710   55.8790 N.3   203  THR203     -0.1203
    124  CA        49.4900  -31.7390   55.2510 C.3   203  THR203      0.1994
    125  C         50.6320  -30.7770   55.5680 C.2   203  THR203      0.2617
    126  O         51.7690  -31.1850   55.8710 O.2   203  THR203     -0.2717
    127  CB        49.2820  -31.7670   53.7230 C.3   203  THR203      0.1784
    128  OG1       48.7800  -33.0560   53.3590 O.3   203  THR203     -0.2211
    129  CG2       50.5990  -31.4690   52.9380 C.3   203  THR203      0.0376
    130  N         50.3190  -29.4910   55.4720 N.am  204  ALA204     -0.1979
    131  CA        51.2980  -28.4610   55.6950 C.3   204  ALA204      0.1597
    132  C         51.6790  -28.4330   57.1750 C.2   204  ALA204      0.2287
    133  O         52.8660  -28.3000   57.5320 O.2   204  ALA204     -0.2864
    134  CB        50.7370  -27.1020   55.2430 C.3   204  ALA204      0.0319
    135  N         54.0130  -31.2510   57.7650 N.3   207  ALA207     -0.1231
    136  CA        55.3080  -31.0810   57.1250 C.3   207  ALA207      0.1694
    137  C         56.1960  -30.1110   57.9040 C.2   207  ALA207      0.2591
    138  O         57.4210  -30.1900   57.8260 O.2   207  ALA207     -0.2718
    139  CB        55.1170  -30.6280   55.6680 C.3   207  ALA207      0.0304
    140  N         55.5910  -29.2040   58.6590 N.am  208  VAL208     -0.1980
    141  CA        56.4000  -28.2880   59.4590 C.3   208  VAL208      0.1595
    142  C         56.3270  -28.5730   60.9570 C.2   208  VAL208      0.2287
    143  O         57.1490  -28.0840   61.7290 O.2   208  VAL208     -0.2864
    144  CB        56.0080  -26.8430   59.2070 C.3   208  VAL208      0.0276
    145  CG1       56.3150  -26.5160   57.7570 C.3   208  VAL208      0.0022
    146  CG2       54.5400  -26.6540   59.5140 C.3   208  VAL208      0.0022
    147  N         56.4660  -21.2830   63.2770 N.3   213  MET213     -0.1245
    148  CA        56.0470  -20.6020   62.0750 C.3   213  MET213      0.1570
    149  C         54.5490  -20.4720   62.2630 C.2   213  MET213      0.2261
    150  O         53.8700  -21.4670   62.4950 O.2   213  MET213     -0.2867
    151  CB        56.3420  -21.4860   60.8660 C.3   213  MET213      0.0387
    152  CG        56.6150  -20.7320   59.5710 C.3   213  MET213      0.0595
    153  SD        57.8480  -21.5580   58.5260 S.3   213  MET213     -0.1393
    154  CE        59.2790  -20.4770   58.7050 C.3   213  MET213      0.0692
@<TRIPOS>BOND
     1    86    85    2
     2     2     1    1
     3     2     3    1
     4     2     5    1
     5     3     4    2
     6    85    84    1
     7     7     5    1
     8    83    84    1
     9    84    87    1
    10     5     6    1
    11    47    46    2
    12    30    31    1
    13    46    45    1
    14    87    88    1
    15     6     8    1
    16    33    32    2
    17    88    89   ar
    18    88    90   ar
    19    89    91   ar
    20    79    78    2
    21    35    34    1
    22    91    93   ar
    23    90    92   ar
    24    31    34    1
    25    31    32    1
    26    93    92   ar
    27    93    94    1
    28    32    36   am
    29    15    13    1
    30    78    77    1
    31    45    48    1
    32    45    44    1
    33    39    38    2
    34    13    14    1
    35    13    10    1
    36    38    44   am
    37    38    37    1
    38    95    96    1
    39    36    37    1
    40     9    10    1
    41   101   100    1
    42   100   102    1
    43   100    99    1
    44    37    40    1
    45    77    80    1
    46    77    76    1
    47    10    11    1
    48    80    82    1
    49    80    81    1
    50    49    50    1
    51    52    51    2
    52    96    99    1
    53    96    97    1
    54    76    70   am
    55    98    97    2
    56    40    41    1
    57    11    16   am
    58    11    12    2
    59    55    57   ar
    60    55    54   ar
    61    51    50    1
    62    51    61   am
    63    97   103   am
    64    50    53    1
    65    70    71    2
    66    70    69    1
    67    57    59   ar
    68    16    17    1
    69    43    41    1
    70    53    54    1
    71    19    18    2
    72    41    42    1
    73    68    69    1
    74    68    63   am
    75    54    56   ar
    76    62    61    1
    77    62    63    1
    78    62    65    1
    79    61    67    1
    80    69    72    1
    81    63    64    2
    82   103   104    1
    83    59    60    1
    84    59    58   ar
    85    17    18    1
    86    17    20    1
    87    18    22   am
    88    21    20    1
    89    56    58   ar
    90    65    66    1
    91   129   127    1
    92   104   105    1
    93    67    66    1
    94   106   105    2
    95    72    73    1
    96   128   127    1
    97    22    23    1
    98    24    23    1
    99    24    25    2
   100    23    26    1
   101   120   122    1
   102   120   119    1
   103   105   107   am
   104   127   124    1
   105    29    27    1
   106    74    73    1
   107    74    75    1
   108   119   121    1
   109   119   116    1
   110   107   108    1
   111    26    27    1
   112    27    28    1
   113   134   131    1
   114   124   125    1
   115   124   123    1
   116   108   109    1
   117   108   111    1
   118   115   116    1
   119   115   109   am
   120   130   125   am
   121   130   131    1
   122   125   126    2
   123   139   136    1
   124   131   132    1
   125   116   117    1
   126   109   110    2
   127   118   117    2
   128   113   112    1
   129   111   112    1
   130   136   135    1
   131   136   137    1
   132   132   133    2
   133   112   114    1
   134   145   144    1
   135   138   137    2
   136   137   140   am
   137   153   154    1
   138   153   152    1
   139   140   141    1
   140   144   141    1
   141   144   146    1
   142   141   142    1
   143   152   151    1
   144   151   148    1
   145   142   143    2
   146   148   149    1
   147   148   147    1
   148   149   150    2
