@<TRIPOS>MOLECULE
tmp/3czuB00.pdb
 84 84 0 0 0
SMALL
GASTEIGER

@<TRIPOS>ATOM
      1  N        -30.0050  -22.0220    3.8260 N.3     7  PHE7       -0.1241
      2  CA       -31.0150  -22.9450    3.3310 C.3     7  PHE7        0.1605
      3  C        -31.0810  -24.1630    4.2400 C.2     7  PHE7        0.2264
      4  O        -30.2140  -25.0430    4.1820 O.2     7  PHE7       -0.2867
      5  CB       -30.7460  -23.3070    1.8720 C.3     7  PHE7        0.0534
      6  CG       -30.9710  -22.1630    0.9330 C.ar    7  PHE7       -0.0203
      7  CD1      -29.9430  -21.2650    0.6470 C.ar    7  PHE7       -0.0042
      8  CD2      -32.2270  -21.9520    0.3630 C.ar    7  PHE7       -0.0042
      9  CE1      -30.1520  -20.1860   -0.2110 C.ar    7  PHE7       -0.0003
     10  CE2      -32.4490  -20.8800   -0.4960 C.ar    7  PHE7       -0.0003
     11  CZ       -31.4070  -19.9960   -0.7850 C.ar    7  PHE7       -0.0000
     12  N        -32.1230  -27.3170    4.7280 N.3     9  ASN9       -0.1240
     13  CA       -32.6440  -28.6000    4.2330 C.3     9  ASN9        0.1653
     14  C        -31.5330  -29.6450    4.1120 C.2     9  ASN9        0.2266
     15  O        -30.3520  -29.2850    4.0200 O.2     9  ASN9       -0.2867
     16  CB       -33.4840  -28.4440    2.9410 C.3     9  ASN9        0.1155
     17  CG       -32.6460  -28.1260    1.7010 C.2     9  ASN9        0.2627
     18  OD1      -31.8420  -28.9520    1.2350 O.2     9  ASN9       -0.2716
     19  ND2      -32.8640  -26.9330    1.1380 N.am    9  ASN9       -0.0877
     20  N        -30.4010  -31.5230    1.8640 N.3    11  SER11      -0.1202
     21  CA       -29.5880  -31.5420    0.6390 C.3    11  SER11       0.2020
     22  C        -28.5280  -30.4600    0.6330 C.2    11  SER11       0.2619
     23  O        -27.6890  -30.4290   -0.2630 O.2    11  SER11      -0.2717
     24  CB       -30.4510  -31.3520   -0.6070 C.3    11  SER11       0.2103
     25  OG       -31.2490  -32.4870   -0.8300 O.3    11  SER11      -0.2182
     26  N        -28.5870  -29.5480    1.5960 N.am   12  ASN12      -0.1960
     27  CA       -27.6130  -28.4740    1.6580 C.3    12  ASN12       0.1804
     28  C        -26.2790  -29.0310    2.1340 C.2    12  ASN12       0.2463
     29  O        -26.1480  -29.3690    3.3120 O.2    12  ASN12      -0.2730
     30  CB       -28.0920  -27.3570    2.5910 C.3    12  ASN12       0.1195
     31  CG       -27.1850  -26.1390    2.5620 C.2    12  ASN12       0.2630
     32  OD1      -26.0280  -26.2070    2.1130 O.2    12  ASN12      -0.2716
     33  ND2      -27.7060  -25.0090    3.0380 N.am   12  ASN12      -0.0877
     34  N        -25.2810  -29.1070    1.2300 N.am   13  PRO13      -0.2727
     35  CA       -23.9970  -29.7350    1.5390 C.3    13  PRO13       0.1402
     36  C        -23.2850  -29.1290    2.7470 C.2    13  PRO13       0.2269
     37  O        -22.4890  -29.8070    3.3930 O.2    13  PRO13      -0.2865
     38  CB       -23.1690  -29.4930    0.2670 C.3    13  PRO13       0.0296
     39  CG       -24.1650  -29.2990   -0.8070 C.3    13  PRO13       0.0237
     40  CD       -25.3030  -28.5790   -0.1470 C.3    13  PRO13       0.0939
     41  N        -36.7990  -22.2320    5.0330 N.3    34  CYS34      -0.1221
     42  CA       -37.3690  -23.5620    5.1650 C.3    34  CYS34       0.1794
     43  C        -37.4360  -24.2880    3.8220 C.2    34  CYS34       0.2443
     44  O        -37.4920  -23.6450    2.7560 O.2    34  CYS34      -0.2733
     45  CB       -38.7710  -23.4680    5.7520 C.3    34  CYS34       0.0970
     46  SG       -38.8040  -22.8830    7.4300 S.3    34  CYS34      -0.0800
     47  N        -37.4550  -25.6310    3.8630 N.am   35  PRO35      -0.2718
     48  CA       -37.6550  -26.3870    2.6260 C.3    35  PRO35       0.1535
     49  C        -38.9430  -25.9100    1.9490 C.2    35  PRO35       0.2599
     50  O        -39.9340  -25.6530    2.6380 O.2    35  PRO35      -0.2715
     51  CB       -37.8080  -27.8220    3.1150 C.3    35  PRO35       0.0310
     52  CG       -37.1270  -27.8470    4.4420 C.3    35  PRO35       0.0237
     53  CD       -37.3180  -26.5030    5.0440 C.3    35  PRO35       0.0939
     54  N        -38.9150  -25.7450    0.6290 N.am   36  HIS36      -0.1960
     55  CA       -40.0660  -25.2320   -0.1030 C.3    36  HIS36       0.1787
     56  C        -40.1880  -25.8640   -1.4970 C.2    36  HIS36       0.2620
     57  O        -39.1800  -26.1260   -2.1510 O.2    36  HIS36      -0.2715
     58  CB       -40.0050  -23.7090   -0.1990 C.3    36  HIS36       0.0785
     59  CG       -41.2490  -23.1030   -0.7590 C.ar   36  HIS36       0.0821
     60  ND1      -41.3220  -22.6090   -2.0440 N.ar   36  HIS36      -0.2267
     61  CD2      -42.4880  -22.9630   -0.2300 C.ar   36  HIS36       0.1154
     62  CE1      -42.5470  -22.1700   -2.2740 C.ar   36  HIS36       0.1986
     63  NE2      -43.2750  -22.3770   -1.1920 N.ar   36  HIS36      -0.2212
     64  N        -41.4210  -26.1100   -1.9430 N.am   37  TYR37      -0.1974
     65  CA       -41.6920  -26.8880   -3.1590 C.3    37  TYR37       0.1639
     66  C        -42.8620  -26.3210   -3.9760 C.2    37  TYR37       0.2290
     67  O        -43.8910  -25.9590   -3.4050 O.2    37  TYR37      -0.2864
     68  CB       -42.0560  -28.3280   -2.7690 C.3    37  TYR37       0.0560
     69  CG       -41.0980  -29.0280   -1.8210 C.ar   37  TYR37      -0.0198
     70  CD1      -40.1610  -29.9530   -2.3000 C.ar   37  TYR37      -0.0009
     71  CD2      -41.1410  -28.7890   -0.4380 C.ar   37  TYR37      -0.0009
     72  CE1      -39.2810  -30.6050   -1.4310 C.ar   37  TYR37       0.0417
     73  CE2      -40.2550  -29.4310    0.4380 C.ar   37  TYR37       0.0417
     74  CZ       -39.3360  -30.3390   -0.0670 C.ar   37  TYR37       0.1957
     75  OH       -38.4720  -30.9800    0.7900 O.3    37  TYR37      -0.2866
     76  N        -39.7790  -31.9160    3.1160 N.3    46  GLU46      -0.1245
     77  CA       -39.0660  -31.7990    4.3850 C.3    46  GLU46       0.1567
     78  C        -39.7380  -30.7830    5.2940 C.2    46  GLU46       0.2260
     79  O        -40.1340  -29.7040    4.8410 O.2    46  GLU46      -0.2867
     80  CB       -37.5940  -31.4420    4.1510 C.3    46  GLU46       0.0388
     81  CG       -36.7790  -32.5910    3.6080 C.3    46  GLU46       0.1160
     82  CD       -35.3010  -32.2720    3.4210 C.2    46  GLU46       0.3649
     83  OE1      -34.7840  -31.3580    4.0860 O.co2  46  GLU46      -0.2457
     84  OE2      -34.6450  -32.9470    2.5970 O.co2  46  GLU46      -0.2457
@<TRIPOS>BOND
     1    66    67    2
     2    66    65    1
     3    65    68    1
     4    65    64    1
     5    68    69    1
     6    70    69   ar
     7    70    72   ar
     8    62    60   ar
     9    62    63   ar
    10    57    56    2
    11    60    59   ar
    12    64    56   am
    13    69    71   ar
    14    56    55    1
    15    72    74   ar
    16    63    61   ar
    17    25    24    1
    18    39    40    1
    19    39    38    1
    20    11    10   ar
    21    11     9   ar
    22    59    61   ar
    23    59    58    1
    24    24    21    1
    25    10     8   ar
    26    71    73   ar
    27    23    22    2
    28     9     7   ar
    29    58    55    1
    30    40    34    1
    31    55    54    1
    32    74    73   ar
    33    74    75    1
    34    38    35    1
    35     8     6   ar
    36    54    49   am
    37    22    21    1
    38    22    26   am
    39    21    20    1
    40     7     6   ar
    41     6     5    1
    42    19    17   am
    43    34    35    1
    44    34    28   am
    45    18    17    2
    46    35    36    1
    47    26    27    1
    48    27    28    1
    49    27    30    1
    50    17    16    1
    51     5     2    1
    52    49    48    1
    53    49    50    2
    54    32    31    2
    55    28    29    2
    56    31    30    1
    57    31    33   am
    58    84    82   ar
    59    48    51    1
    60    48    47    1
    61    36    37    2
    62    44    43    2
    63    16    13    1
    64    51    52    1
    65    76    77    1
    66     2     1    1
    67     2     3    1
    68    82    81    1
    69    82    83   ar
    70    81    80    1
    71    43    47   am
    72    43    42    1
    73    47    53    1
    74    15    14    2
    75    14    13    1
    76    80    77    1
    77     4     3    2
    78    13    12    1
    79    77    78    1
    80    52    53    1
    81    79    78    2
    82    41    42    1
    83    42    45    1
    84    45    46    1
