@<TRIPOS>MOLECULE
tmp/3czvB00.pdb
 125 124 0 0 0
SMALL
GASTEIGER

@<TRIPOS>ATOM
      1  N         46.8780   67.1320   32.6180 N.3    89  ARG89      -0.1231
      2  CA        45.4320   67.0350   32.4540 C.3    89  ARG89       0.1694
      3  C         44.6570   67.4590   33.6980 C.2    89  ARG89       0.2591
      4  O         43.7620   68.3010   33.6150 O.2    89  ARG89      -0.2718
      5  CB        45.0580   65.5950   32.0800 C.3    89  ARG89       0.0321
      6  CG        43.7880   65.4570   31.2530 C.3    89  ARG89       0.0489
      7  CD        42.5560   65.8490   32.0320 C.3    89  ARG89       0.2205
      8  NE        41.8260   66.9350   31.3880 N.pl3  89  ARG89      -0.0865
      9  CZ        40.7210   67.4820   31.8850 C.cat  89  ARG89       0.5346
     10  NH1       40.2220   67.0390   33.0320 N.pl3  89  ARG89       0.1354
     11  NH2       40.1170   68.4730   31.2420 N.pl3  89  ARG89       0.1354
     12  N         44.9830   66.8690   34.8460 N.am   90  GLN90      -0.1979
     13  CA        44.2800   67.2130   36.0810 C.3    90  GLN90       0.1601
     14  C         45.0720   66.8820   37.3410 C.2    90  GLN90       0.2287
     15  O         46.0920   66.1900   37.3010 O.2    90  GLN90      -0.2864
     16  CB        42.9280   66.4900   36.1560 C.3    90  GLN90       0.0394
     17  CG        43.0210   65.0610   36.6840 C.3    90  GLN90       0.0908
     18  CD        41.7570   64.6030   37.4000 C.2    90  GLN90       0.2608
     19  OE1       41.8230   63.8280   38.3500 O.2    90  GLN90      -0.2717
     20  NE2       40.6010   65.0690   36.9380 N.am   90  GLN90      -0.0878
     21  N         44.2260   65.8250   41.5560 N.3    92  HIS92      -0.1241
     22  CA        43.2490   65.4730   42.5820 C.3    92  HIS92       0.1621
     23  C         43.9780   64.9050   43.7990 C.2    92  HIS92       0.2264
     24  O         45.2040   64.7580   43.7850 O.2    92  HIS92      -0.2867
     25  CB        42.2220   64.4660   42.0560 C.3    92  HIS92       0.0745
     26  CG        42.8200   63.1760   41.5910 C.ar   92  HIS92       0.0817
     27  ND1       43.1790   62.9530   40.2790 N.ar   92  HIS92      -0.2268
     28  CD2       43.1260   62.0410   42.2640 C.ar   92  HIS92       0.1154
     29  CE1       43.6780   61.7350   40.1640 C.ar   92  HIS92       0.1986
     30  NE2       43.6580   61.1620   41.3540 N.ar   92  HIS92      -0.2212
     31  N         43.8890   62.0440   47.3480 N.3    94  HIS94      -0.1241
     32  CA        43.3490   60.8750   48.0250 C.3    94  HIS94       0.1621
     33  C         43.7240   60.9820   49.4950 C.2    94  HIS94       0.2264
     34  O         44.8280   61.4220   49.8370 O.2    94  HIS94      -0.2867
     35  CB        43.9490   59.5920   47.4450 C.3    94  HIS94       0.0745
     36  CG        43.5730   59.3390   46.0190 C.ar   94  HIS94       0.0817
     37  ND1       42.4070   58.7000   45.6590 N.ar   94  HIS94      -0.2268
     38  CD2       44.1960   59.6670   44.8630 C.ar   94  HIS94       0.1154
     39  CE1       42.3270   58.6440   44.3420 C.ar   94  HIS94       0.1986
     40  NE2       43.4000   59.2250   43.8340 N.ar   94  HIS94      -0.2212
     41  N         47.8230   63.3530   43.1860 N.3   117  HIS117     -0.1241
     42  CA        48.0700   62.7660   41.8740 C.3   117  HIS117      0.1621
     43  C         47.9960   63.8300   40.7870 C.2   117  HIS117      0.2264
     44  O         47.0680   64.6350   40.7590 O.2   117  HIS117     -0.2867
     45  CB        47.0560   61.6560   41.5750 C.3   117  HIS117      0.0745
     46  CG        47.2800   60.4080   42.3700 C.ar  117  HIS117      0.0817
     47  ND1       46.3080   59.4460   42.5370 N.ar  117  HIS117     -0.2268
     48  CD2       48.3740   59.9560   43.0300 C.ar  117  HIS117      0.1154
     49  CE1       46.7910   58.4560   43.2660 C.ar  117  HIS117      0.1986
     50  NE2       48.0430   58.7400   43.5790 N.ar  117  HIS117     -0.2212
     51  N         47.8610   63.9940   36.8410 N.3   119  VAL119     -0.1245
     52  CA        47.5830   63.1940   35.6600 C.3   119  VAL119      0.1561
     53  C         47.9880   63.8330   34.3320 C.2   119  VAL119      0.2260
     54  O         47.6000   64.9610   34.0360 O.2   119  VAL119     -0.2867
     55  CB        46.0700   62.8680   35.6110 C.3   119  VAL119      0.0252
     56  CG1       45.7800   61.8320   34.5460 C.3   119  VAL119      0.0019
     57  CG2       45.6020   62.3870   36.9810 C.3   119  VAL119      0.0019
     58  N         42.7860   62.1480   25.3920 N.3   129  PHE129     -0.1241
     59  CA        43.0330   61.4600   26.6520 C.3   129  PHE129      0.1605
     60  C         42.3550   60.0950   26.6410 C.2   129  PHE129      0.2264
     61  O         42.9300   59.1100   27.0960 O.2   129  PHE129     -0.2867
     62  CB        42.5040   62.2870   27.8310 C.3   129  PHE129      0.0534
     63  CG        42.7660   61.6660   29.1760 C.ar  129  PHE129     -0.0203
     64  CD1       42.0680   60.5310   29.5880 C.ar  129  PHE129     -0.0042
     65  CD2       43.7380   62.1930   30.0190 C.ar  129  PHE129     -0.0042
     66  CE1       42.3340   59.9340   30.8170 C.ar  129  PHE129     -0.0003
     67  CE2       44.0110   61.6030   31.2490 C.ar  129  PHE129     -0.0003
     68  CZ        43.3100   60.4690   31.6490 C.ar  129  PHE129     -0.0000
     69  N         51.1060   59.3410   35.6720 N.3   141  VAL141     -0.1245
     70  CA        50.6010   60.0030   36.8700 C.3   141  VAL141      0.1561
     71  C         51.7080   60.1980   37.8900 C.2   141  VAL141      0.2260
     72  O         52.3640   59.2430   38.3140 O.2   141  VAL141     -0.2867
     73  CB        49.4640   59.2170   37.5490 C.3   141  VAL141      0.0252
     74  CG1       49.0420   59.9300   38.8310 C.3   141  VAL141      0.0019
     75  CG2       48.2690   59.0960   36.6050 C.3   141  VAL141      0.0019
     76  N         44.7930   53.1380   36.5370 N.3   196  LEU196     -0.1231
     77  CA        44.0520   54.1980   37.2090 C.3   196  LEU196      0.1693
     78  C         43.5990   53.5250   38.5040 C.2   196  LEU196      0.2593
     79  O         43.2920   52.3290   38.4970 O.2   196  LEU196     -0.2718
     80  CB        42.8260   54.5980   36.3830 C.3   196  LEU196      0.0284
     81  CG        43.0540   55.1680   34.9810 C.3   196  LEU196      0.0019
     82  CD1       41.7020   55.3490   34.2880 C.3   196  LEU196      0.0001
     83  CD2       43.8040   56.4970   35.0750 C.3   196  LEU196      0.0001
     84  N         43.5510   54.2700   39.6060 N.am  197  THR197     -0.1939
     85  CA        43.1440   53.6900   40.8850 C.3   197  THR197      0.2028
     86  C         41.6450   53.7950   41.1430 C.2   197  THR197      0.2642
     87  O         41.1790   53.5350   42.2510 O.2   197  THR197     -0.2714
     88  CB        43.8920   54.3410   42.0680 C.3   197  THR197      0.1808
     89  OG1       43.5470   55.7300   42.1500 O.3   197  THR197     -0.2208
     90  CG2       45.4040   54.1990   41.8820 C.3   197  THR197      0.0379
     91  N         40.9020   54.1820   40.1120 N.am  198  VAL198     -0.1963
     92  CA        39.4470   54.3020   40.1810 C.3   198  VAL198      0.1712
     93  C         38.9110   53.8280   38.8270 C.2   198  VAL198      0.2458
     94  O         39.6310   53.8570   37.8200 O.2   198  VAL198     -0.2730
     95  CB        38.9820   55.7740   40.3860 C.3   198  VAL198      0.0289
     96  CG1       39.5830   56.3530   41.6570 C.3   198  VAL198      0.0023
     97  CG2       39.3720   56.6130   39.1860 C.3   198  VAL198      0.0023
     98  N         37.6440   53.3830   38.7770 N.am  199  PRO199     -0.2716
     99  CA        37.0600   52.9190   37.5070 C.3   199  PRO199      0.1521
    100  C         37.2570   54.0220   36.4640 C.2   199  PRO199      0.2440
    101  O         37.1360   55.2010   36.7850 O.2   199  PRO199     -0.2731
    102  CB        35.5930   52.7130   37.8620 C.3   199  PRO199      0.0310
    103  CG        35.6540   52.3180   39.3220 C.3   199  PRO199      0.0237
    104  CD        36.6750   53.2720   39.8830 C.3   199  PRO199      0.0939
    105  N         37.4940   53.6620   35.1900 N.am  200  PRO200     -0.2727
    106  CA        37.6100   52.3320   34.5820 C.3   200  PRO200      0.1402
    107  C         38.8230   51.4580   34.9100 C.2   200  PRO200      0.2269
    108  O         38.9770   50.3860   34.3280 O.2   200  PRO200     -0.2865
    109  CB        37.4960   52.6340   33.0860 C.3   200  PRO200      0.0296
    110  CG        38.1920   53.9420   32.9770 C.3   200  PRO200      0.0237
    111  CD        37.6450   54.7100   34.1630 C.3   200  PRO200      0.0939
    112  N         53.3650   54.8740   36.4360 N.3   207  TRP207     -0.1241
    113  CA        53.4060   55.5400   37.7310 C.3   207  TRP207      0.1605
    114  C         54.7790   56.0750   38.1000 C.2   207  TRP207      0.2264
    115  O         55.7960   55.4070   37.9110 O.2   207  TRP207     -0.2867
    116  CB        52.9090   54.6050   38.8330 C.3   207  TRP207      0.0550
    117  CG        51.4200   54.5650   38.9010 C.ar  207  TRP207      0.0003
    118  CD1       50.5920   53.6600   38.3010 C.ar  207  TRP207      0.0946
    119  CD2       50.5750   55.5260   39.5370 C.ar  207  TRP207      0.0152
    120  NE1       49.2770   54.0010   38.5210 N.ar  207  TRP207     -0.2442
    121  CE2       49.2380   55.1440   39.2750 C.ar  207  TRP207      0.0810
    122  CE3       50.8160   56.6770   40.3010 C.ar  207  TRP207      0.0012
    123  CZ2       48.1430   55.8770   39.7510 C.ar  207  TRP207      0.0191
    124  CZ3       49.7260   57.4050   40.7760 C.ar  207  TRP207      0.0001
    125  CH2       48.4060   57.0010   40.4970 C.ar  207  TRP207      0.0015
@<TRIPOS>BOND
     1    58    59    1
     2    60    59    1
     3    60    61    2
     4    59    62    1
     5    62    63    1
     6    63    64   ar
     7    63    65   ar
     8    64    66   ar
     9    65    67   ar
    10    66    68   ar
    11    11     9    1
    12    67    68   ar
    13     6     7    1
    14     6     5    1
    15     8     9    2
    16     8     7    1
    17     9    10    1
    18     5     2    1
    19     2     1    1
    20     2     3    1
    21   110   109    1
    22   110   111    1
    23   109   106    1
    24     4     3    2
    25     3    12   am
    26    54    53    2
    27   111   105    1
    28    82    81    1
    29   108   107    2
    30    53    52    1
    31    56    55    1
    32   106   107    1
    33   106   105    1
    34    12    13    1
    35    81    83    1
    36    81    80    1
    37   105   100   am
    38    55    52    1
    39    55    57    1
    40    52    51    1
    41    69    70    1
    42    13    16    1
    43    13    14    1
    44    16    17    1
    45    80    77    1
    46   112   113    1
    47   100   101    2
    48   100    99    1
    49    76    77    1
    50    75    73    1
    51    17    18    1
    52    70    73    1
    53    70    71    1
    54    20    18   am
    55    77    78    1
    56    15    14    2
    57    18    19    2
    58    99   102    1
    59    99    98    1
    60    73    74    1
    61   113   114    1
    62   113   116    1
    63    94    93    2
    64   102   103    1
    65    71    72    2
    66   115   114    2
    67   118   120   ar
    68   118   117   ar
    69    79    78    2
    70    78    84   am
    71   120   121   ar
    72    98    93   am
    73    98   104    1
    74    93    92    1
    75   116   117    1
    76   117   119   ar
    77    97    95    1
    78   121   119   ar
    79   121   123   ar
    80   103   104    1
    81   119   122   ar
    82    84    85    1
    83   123   125   ar
    84    91    92    1
    85    91    86   am
    86    29    27   ar
    87    29    30   ar
    88    92    95    1
    89    27    26   ar
    90   122   124   ar
    91    95    96    1
    92   125   124   ar
    93    44    43    2
    94    43    42    1
    95    85    86    1
    96    85    88    1
    97    86    87    2
    98    30    28   ar
    99    21    22    1
   100    45    42    1
   101    45    46    1
   102    26    25    1
   103    26    28   ar
   104    42    41    1
   105    90    88    1
   106    25    22    1
   107    88    89    1
   108    46    47   ar
   109    46    48   ar
   110    47    49   ar
   111    22    23    1
   112    48    50   ar
   113    49    50   ar
   114    24    23    2
   115    40    39   ar
   116    40    38   ar
   117    39    37   ar
   118    38    36   ar
   119    37    36   ar
   120    36    35    1
   121    31    32    1
   122    35    32    1
   123    32    33    1
   124    33    34    2
