@<TRIPOS>MOLECULE
tmp/3czyB01.pdb
 118 112 0 0 0
SMALL
GASTEIGER

@<TRIPOS>ATOM
      1  N          9.2350    4.8180   43.8510 N.3    16  HIS16      -0.1241
      2  CA         8.2520    3.8680   43.3110 C.3    16  HIS16       0.1621
      3  C          6.8320    4.2920   43.7040 C.2    16  HIS16       0.2264
      4  O          5.9200    4.2740   42.8770 O.2    16  HIS16      -0.2867
      5  CB         8.5240    2.4330   43.7530 C.3    16  HIS16       0.0745
      6  CG         7.7200    1.4130   43.0060 C.ar   16  HIS16       0.0817
      7  ND1        6.4090    1.1240   43.3310 N.ar   16  HIS16      -0.2268
      8  CD2        8.0280    0.6280   41.9470 C.ar   16  HIS16       0.1154
      9  CE1        5.9520    0.1950   42.5090 C.ar   16  HIS16       0.1986
     10  NE2        6.9200   -0.1290   41.6670 N.ar   16  HIS16      -0.2212
     11  N         -0.2270    6.8530   35.4940 N.3    25  MET25      -0.1245
     12  CA        -0.2740    5.5090   36.0600 C.3    25  MET25       0.1570
     13  C         -1.6000    5.1930   36.7490 C.2    25  MET25       0.2261
     14  O         -2.1110    4.0860   36.6150 O.2    25  MET25      -0.2867
     15  CB         0.9170    5.2790   36.9990 C.3    25  MET25       0.0387
     16  CG         2.2680    5.2780   36.2870 C.3    25  MET25       0.0595
     17  SD         2.4480    3.8510   35.1930 S.3    25  MET25      -0.1393
     18  CE         2.0900    4.5250   33.5980 C.3    25  MET25       0.0692
     19  N         -3.8490    4.5870   33.9180 N.3    28  PHE28      -0.1241
     20  CA        -3.5510    3.3100   33.2700 C.3    28  PHE28       0.1605
     21  C         -4.1440    2.1480   34.0650 C.2    28  PHE28       0.2264
     22  O         -4.8120    1.2740   33.5100 O.2    28  PHE28      -0.2867
     23  CB        -2.0390    3.1340   33.1010 C.3    28  PHE28       0.0534
     24  CG        -1.6450    2.0060   32.1730 C.ar   28  PHE28      -0.0203
     25  CD1       -1.5190    0.7010   32.6460 C.ar   28  PHE28      -0.0042
     26  CD2       -1.3830    2.2560   30.8240 C.ar   28  PHE28      -0.0042
     27  CE1       -1.1500   -0.3450   31.7850 C.ar   28  PHE28      -0.0003
     28  CE2       -1.0080    1.2170   29.9550 C.ar   28  PHE28      -0.0003
     29  CZ        -0.9020   -0.0840   30.4370 C.ar   28  PHE28      -0.0000
     30  N          2.9890    5.3360   24.8370 N.3    41  VAL41      -0.1245
     31  CA         3.7390    4.5020   25.7810 C.3    41  VAL41       0.1561
     32  C          4.6480    3.5300   25.0210 C.2    41  VAL41       0.2260
     33  O          5.8570    3.4290   25.3010 O.2    41  VAL41      -0.2867
     34  CB         2.7750    3.7060   26.7060 C.3    41  VAL41       0.0252
     35  CG1        3.4980    2.5810   27.4370 C.3    41  VAL41       0.0019
     36  CG2        2.0860    4.6390   27.6700 C.3    41  VAL41       0.0019
     37  N          8.7110    3.2560   25.0540 N.3    45  LEU45      -0.1245
     38  CA         9.4150    2.0250   25.4550 C.3    45  LEU45       0.1561
     39  C         10.4020    1.6000   24.3680 C.2    45  LEU45       0.2260
     40  O         11.5270    1.1970   24.6520 O.2    45  LEU45      -0.2867
     41  CB         8.4170    0.8970   25.7300 C.3    45  LEU45       0.0270
     42  CG         7.5970    1.0470   27.0140 C.3    45  LEU45       0.0019
     43  CD1        6.3960    0.0970   27.0270 C.3    45  LEU45       0.0001
     44  CD2        8.4880    0.8280   28.2370 C.3    45  LEU45       0.0001
     45  N         14.1710   -1.0050   34.4930 N.3   127  ARG127     -0.1245
     46  CA        13.3860   -1.3710   33.3130 C.3   127  ARG127      0.1563
     47  C         12.8970   -2.8160   33.3540 C.2   127  ARG127      0.2260
     48  O         11.6890   -3.0660   33.3340 O.2   127  ARG127     -0.2867
     49  CB        14.2060   -1.1190   32.0400 C.3   127  ARG127      0.0307
     50  CG        13.9720    0.2680   31.4350 C.3   127  ARG127      0.0489
     51  CD        12.8310    0.2650   30.3830 C.3   127  ARG127      0.2205
     52  NE        11.4760    0.0560   30.9030 N.pl3 127  ARG127     -0.0865
     53  CZ        10.7190    1.0140   31.4450 C.cat 127  ARG127      0.5346
     54  NH1       11.1970    2.2610   31.5740 N.pl3 127  ARG127      0.1354
     55  NH2        9.4700    0.7450   31.8370 N.pl3 127  ARG127      0.1354
     56  N         10.9080   -4.2230   36.7410 N.3   130  GLY130     -0.1210
     57  CA         9.5810   -3.6270   36.7220 C.3   130  GLY130      0.1956
     58  C          8.7140   -4.1920   35.6230 C.2   130  GLY130      0.2611
     59  O          7.5770   -4.5960   35.8670 O.2   130  GLY130     -0.2717
     60  N          9.2190   -4.1880   34.3990 N.am  131  ASP131     -0.1973
     61  CA         8.3780   -4.6090   33.2600 C.3   131  ASP131      0.1709
     62  C          7.9700   -6.0820   33.3270 C.2   131  ASP131      0.2293
     63  O          6.8890   -6.4570   32.8230 O.2   131  ASP131     -0.2864
     64  CB         9.0460   -4.2920   31.9260 C.3   131  ASP131      0.1436
     65  CG         9.2070   -2.7820   31.6820 C.2   131  ASP131      0.3671
     66  OD1        8.6580   -1.9680   32.4550 O.co2 131  ASP131     -0.2456
     67  OD2        9.9000   -2.4180   30.7150 O.co2 131  ASP131     -0.2456
     68  N          7.1860   -7.4770   36.1510 N.3   133  SER133     -0.1202
     69  CA         6.2670   -7.5710   37.2840 C.3   133  SER133      0.2020
     70  C          4.7990   -7.3730   36.9160 C.2   133  SER133      0.2619
     71  O          3.9210   -7.7270   37.6920 O.2   133  SER133     -0.2717
     72  CB         6.6590   -6.5480   38.3540 C.3   133  SER133      0.2103
     73  OG         7.9430   -6.8350   38.8780 O.3   133  SER133     -0.2182
     74  N          4.5430   -6.7850   35.7570 N.am  134  GLY134     -0.1956
     75  CA         3.1910   -6.6250   35.2620 C.3   134  GLY134      0.1869
     76  C          2.8250   -7.7940   34.3650 C.2   134  GLY134      0.2309
     77  O          2.6440   -7.6320   33.1500 O.2   134  GLY134     -0.2863
     78  N         -1.6180   -6.4910   34.0070 N.3   138  LEU138     -0.1245
     79  CA        -1.4840   -5.2480   33.2530 C.3   138  LEU138      0.1561
     80  C         -1.8320   -5.4430   31.7770 C.2   138  LEU138      0.2260
     81  O         -2.4820   -4.5880   31.1790 O.2   138  LEU138     -0.2867
     82  CB        -0.1060   -4.6000   33.4480 C.3   138  LEU138      0.0270
     83  CG         0.1630   -4.0170   34.8460 C.3   138  LEU138      0.0019
     84  CD1        1.5770   -3.4540   34.9370 C.3   138  LEU138      0.0001
     85  CD2       -0.8500   -2.9430   35.2440 C.3   138  LEU138      0.0001
     86  N          4.9940   -7.1150   23.6400 N.3   157  PHE157     -0.1227
     87  CA         5.7950   -6.5590   24.7130 C.3   157  PHE157      0.1736
     88  C          5.4690   -7.1780   26.0640 C.2   157  PHE157      0.2595
     89  O          6.3440   -7.3440   26.8920 O.2   157  PHE157     -0.2718
     90  CB         5.6140   -5.0390   24.7940 C.3   157  PHE157      0.0547
     91  CG         6.3470   -4.4250   25.9570 C.ar  157  PHE157     -0.0202
     92  CD1        7.7280   -4.3090   25.9070 C.ar  157  PHE157     -0.0042
     93  CD2        5.6780   -4.0400   27.1120 C.ar  157  PHE157     -0.0042
     94  CE1        8.4590   -3.7750   26.9850 C.ar  157  PHE157     -0.0003
     95  CE2        6.4030   -3.4990   28.1940 C.ar  157  PHE157     -0.0003
     96  CZ         7.8020   -3.3720   28.1180 C.ar  157  PHE157     -0.0000
     97  N          4.1960   -7.5100   26.2670 N.am  158  PHE158     -0.1976
     98  CA         3.7380   -7.9900   27.5670 C.3   158  PHE158      0.1639
     99  C          4.0150   -9.4640   27.8310 C.2   158  PHE158      0.2290
    100  O          3.6840   -9.9720   28.9070 O.2   158  PHE158     -0.2864
    101  CB         2.2540   -7.6450   27.7440 C.3   158  PHE158      0.0560
    102  CG         2.0150   -6.1790   27.9220 C.ar  158  PHE158     -0.0200
    103  CD1        2.0530   -5.6220   29.1960 C.ar  158  PHE158     -0.0042
    104  CD2        1.8110   -5.3550   26.8200 C.ar  158  PHE158     -0.0042
    105  CE1        1.8500   -4.2530   29.3780 C.ar  158  PHE158     -0.0003
    106  CE2        1.6210   -3.9760   26.9840 C.ar  158  PHE158     -0.0003
    107  CZ         1.6400   -3.4340   28.2730 C.ar  158  PHE158     -0.0000
    108  N          6.1510   10.0450   32.0990 N.3   205  PHE205     -0.1241
    109  CA         4.6950    9.9290   32.2320 C.3   205  PHE205      0.1605
    110  C          3.9870   11.2540   32.4810 C.2   205  PHE205      0.2264
    111  O          2.8530   11.4380   32.0490 O.2   205  PHE205     -0.2867
    112  CB         4.3410    8.8480   33.2490 C.3   205  PHE205      0.0534
    113  CG         4.7530    7.4700   32.7920 C.ar  205  PHE205     -0.0203
    114  CD1        4.2860    6.9610   31.5820 C.ar  205  PHE205     -0.0042
    115  CD2        5.6370    6.7090   33.5370 C.ar  205  PHE205     -0.0042
    116  CE1        4.6730    5.6920   31.1330 C.ar  205  PHE205     -0.0003
    117  CE2        6.0260    5.4460   33.1080 C.ar  205  PHE205     -0.0003
    118  CZ         5.5490    4.9410   31.8950 C.ar  205  PHE205     -0.0000
@<TRIPOS>BOND
     1    86    87    1
     2    39    40    2
     3    39    38    1
     4    87    90    1
     5    87    88    1
     6    90    91    1
     7    30    31    1
     8    32    33    2
     9    32    31    1
    10    37    38    1
    11    38    41    1
    12    41    42    1
    13    31    34    1
    14    92    91   ar
    15    92    94   ar
    16    91    93   ar
    17    88    97   am
    18    88    89    2
    19    97    98    1
    20    34    35    1
    21    34    36    1
    22   104   106   ar
    23   104   102   ar
    24   106   107   ar
    25    94    96   ar
    26    42    43    1
    27    42    44    1
    28    93    95   ar
    29    98   101    1
    30    98    99    1
    31   101   102    1
    32    99   100    2
    33   102   103   ar
    34    96    95   ar
    35   107   105   ar
    36   103   105   ar
    37    28    29   ar
    38    28    26   ar
    39    51    52    1
    40    51    50    1
    41    29    27   ar
    42    67    65   ar
    43    26    24   ar
    44    52    53    2
    45   116   114   ar
    46   116   118   ar
    47    81    80    2
    48    50    49    1
    49    53    54    1
    50    53    55    1
    51   114   113   ar
    52    65    64    1
    53    65    66   ar
    54    80    79    1
    55    27    25   ar
    56   118   117   ar
    57    64    61    1
    58    49    46    1
    59   111   110    2
    60   108   109    1
    61    24    25   ar
    62    24    23    1
    63   109   110    1
    64   109   112    1
    65   113   112    1
    66   113   115   ar
    67    63    62    2
    68    23    20    1
    69   117   115   ar
    70    77    76    2
    71    79    82    1
    72    79    78    1
    73    61    62    1
    74    61    60    1
    75    20    19    1
    76    20    21    1
    77    46    47    1
    78    46    45    1
    79    48    47    2
    80    82    83    1
    81    22    21    2
    82    18    17    1
    83    76    75    1
    84    60    58   am
    85    83    84    1
    86    83    85    1
    87    17    16    1
    88    75    74    1
    89    11    12    1
    90    58    59    2
    91    58    57    1
    92    74    70   am
    93    12    13    1
    94    12    15    1
    95    68    69    1
    96    16    15    1
    97    14    13    2
    98    57    56    1
    99    70    69    1
   100    70    71    2
   101    69    72    1
   102    72    73    1
   103    10     8   ar
   104    10     9   ar
   105     8     6   ar
   106     9     7   ar
   107     4     3    2
   108     6     7   ar
   109     6     5    1
   110     2     3    1
   111     2     5    1
   112     2     1    1
