@<TRIPOS>MOLECULE
tmp/3d04C01.pdb
 120 118 0 0 0
SMALL
GASTEIGER

@<TRIPOS>ATOM
      1  N         -7.4070  -19.2190  -31.0500 N.3    12  ILE12      -0.1231
      2  CA        -6.8890  -19.2390  -32.4220 C.3    12  ILE12       0.1692
      3  C         -5.8380  -18.1560  -32.6750 C.2    12  ILE12       0.2592
      4  O         -4.7700  -18.4310  -33.2400 O.2    12  ILE12      -0.2718
      5  CB        -8.0330  -19.1870  -33.4850 C.3    12  ILE12       0.0266
      6  CG1       -9.0220  -20.3600  -33.2930 C.3    12  ILE12       0.0019
      7  CG2       -7.4700  -19.1070  -34.9140 C.3    12  ILE12       0.0020
      8  CD1       -8.4290  -21.7740  -33.3970 C.3    12  ILE12       0.0001
      9  N         -6.1420  -16.9330  -32.2480 N.am   13  LEU13      -0.1966
     10  CA        -5.1940  -15.8270  -32.3670 C.3    13  LEU13       0.1713
     11  C         -4.2640  -15.7930  -31.1530 C.2    13  LEU13       0.2458
     12  O         -4.7180  -15.9720  -30.0300 O.2    13  LEU13      -0.2730
     13  CB        -5.9300  -14.4860  -32.5350 C.3    13  LEU13       0.0310
     14  CG        -6.8390  -14.2900  -33.7600 C.3    13  LEU13       0.0022
     15  CD1       -7.4600  -12.8910  -33.7640 C.3    13  LEU13       0.0001
     16  CD2       -6.0930  -14.5370  -35.0500 C.3    13  LEU13       0.0001
     17  N         -2.9530  -15.5800  -31.3790 N.am   14  PRO14      -0.2716
     18  CA        -1.9910  -15.4660  -30.2780 C.3    14  PRO14       0.1536
     19  C         -1.9940  -14.0710  -29.6220 C.2    14  PRO14       0.2598
     20  O         -1.3910  -13.8840  -28.5640 O.2    14  PRO14      -0.2715
     21  CB        -0.6510  -15.7170  -30.9790 C.3    14  PRO14       0.0310
     22  CG        -0.8550  -15.1540  -32.3390 C.3    14  PRO14       0.0237
     23  CD        -2.2940  -15.4440  -32.6930 C.3    14  PRO14       0.0939
     24  N         -2.6630  -13.1160  -30.2670 N.am   15  HIS15      -0.1974
     25  CA        -2.8400  -11.7520  -29.7710 C.3    15  HIS15       0.1656
     26  C         -3.5330  -11.7280  -28.4260 C.2    15  HIS15       0.2291
     27  O         -4.4880  -12.4720  -28.1900 O.2    15  HIS15      -0.2864
     28  CB        -3.6730  -10.9370  -30.7620 C.3    15  HIS15       0.0771
     29  CG        -3.0340  -10.7680  -32.1040 C.ar   15  HIS15       0.0820
     30  ND1       -2.9560  -11.7890  -33.0250 N.ar   15  HIS15      -0.2267
     31  CD2       -2.4670   -9.6870  -32.6920 C.ar   15  HIS15       0.1154
     32  CE1       -2.3620  -11.3480  -34.1190 C.ar   15  HIS15       0.1986
     33  NE2       -2.0550  -10.0750  -33.9430 N.ar   15  HIS15      -0.2212
     34  N         -6.2450   -8.9170  -38.2990 N.3    68  GLN68      -0.1245
     35  CA        -6.5570  -10.0120  -37.3830 C.3    68  GLN68       0.1566
     36  C         -7.7330  -10.8590  -37.8850 C.2    68  GLN68       0.2260
     37  O         -7.7090  -12.0920  -37.7840 O.2    68  GLN68      -0.2867
     38  CB        -6.8040   -9.4910  -35.9600 C.3    68  GLN68       0.0367
     39  CG        -5.5180   -9.1200  -35.2220 C.3    68  GLN68       0.0905
     40  CD        -5.7540   -8.4040  -33.8920 C.2    68  GLN68       0.2608
     41  OE1       -6.7330   -8.6540  -33.1950 O.2    68  GLN68      -0.2717
     42  NE2       -4.8350   -7.5190  -33.5350 N.am   68  GLN68      -0.0878
     43  N         -6.5150  -12.9440  -40.7880 N.3    71  GLY71      -0.1225
     44  CA        -5.7200  -14.0500  -40.2660 C.3    71  GLY71       0.1811
     45  C         -6.5560  -15.1910  -39.7130 C.2    71  GLY71       0.2280
     46  O         -6.2480  -16.3600  -39.9480 O.2    71  GLY71      -0.2866
     47  N         -6.4480  -18.8310  -41.3450 N.3    75  PHE75      -0.1241
     48  CA        -6.2010  -20.0020  -40.4970 C.3    75  PHE75       0.1605
     49  C         -7.3600  -21.0100  -40.4500 C.2    75  PHE75       0.2264
     50  O         -7.1430  -22.2050  -40.6540 O.2    75  PHE75      -0.2867
     51  CB        -5.7740  -19.6410  -39.0650 C.3    75  PHE75       0.0534
     52  CG        -5.5300  -20.8540  -38.2130 C.ar   75  PHE75      -0.0203
     53  CD1       -4.2530  -21.3940  -38.1010 C.ar   75  PHE75      -0.0042
     54  CD2       -6.5970  -21.5100  -37.5870 C.ar   75  PHE75      -0.0042
     55  CE1       -4.0350  -22.5490  -37.3480 C.ar   75  PHE75      -0.0003
     56  CE2       -6.3890  -22.6650  -36.8370 C.ar   75  PHE75      -0.0003
     57  CZ        -5.1050  -23.1820  -36.7160 C.ar   75  PHE75      -0.0000
     58  N         -3.2120  -24.0810  -34.0510 N.3    86  ALA86      -0.1245
     59  CA        -3.0670  -22.6170  -33.9640 C.3    86  ALA86       0.1562
     60  C         -1.7660  -22.1940  -33.2750 C.2    86  ALA86       0.2260
     61  O         -1.0910  -21.2720  -33.7350 O.2    86  ALA86      -0.2867
     62  CB        -4.2760  -21.9860  -33.2880 C.3    86  ALA86       0.0290
     63  N          1.3810  -22.0810  -35.6560 N.3    89  LYS89      -0.1231
     64  CA         1.3240  -21.2470  -36.8570 C.3    89  LYS89       0.1693
     65  C          1.5250  -19.7630  -36.5680 C.2    89  LYS89       0.2592
     66  O          1.2130  -19.2820  -35.4790 O.2    89  LYS89      -0.2718
     67  CB        -0.0200  -21.4250  -37.5780 C.3    89  LYS89       0.0285
     68  CG        -0.3790  -22.8500  -37.9590 C.3    89  LYS89       0.0035
     69  CD         0.5820  -23.4230  -38.9840 C.3    89  LYS89       0.0206
     70  CE         0.5120  -24.9380  -38.9810 C.3    89  LYS89       0.1093
     71  NZ         1.5520  -25.5370  -39.8440 N.3    89  LYS89      -0.1314
     72  N          2.0640  -19.0510  -37.5530 N.am   90  ILE90      -0.1966
     73  CA         2.0300  -17.5880  -37.5670 C.3    90  ILE90       0.1727
     74  C          1.4170  -17.1080  -38.8800 C.2    90  ILE90       0.2616
     75  O          1.5980  -17.7390  -39.9250 O.2    90  ILE90      -0.2715
     76  CB         3.4310  -16.9230  -37.3350 C.3    90  ILE90       0.0290
     77  CG1        4.3560  -17.0820  -38.5490 C.3    90  ILE90       0.0022
     78  CG2        4.1040  -17.4700  -36.0780 C.3    90  ILE90       0.0023
     79  CD1        5.6560  -16.2840  -38.4440 C.3    90  ILE90       0.0001
     80  N          0.6670  -16.0120  -38.8120 N.am   91  VAL91      -0.1963
     81  CA         0.1950  -15.3170  -40.0040 C.3    91  VAL91       0.1727
     82  C          0.9250  -13.9730  -40.0760 C.2    91  VAL91       0.2616
     83  O          0.5160  -13.0030  -39.4400 O.2    91  VAL91      -0.2715
     84  CB        -1.3480  -15.1210  -40.0060 C.3    91  VAL91       0.0290
     85  CG1       -1.8060  -14.4150  -41.2820 C.3    91  VAL91       0.0023
     86  CG2       -2.0660  -16.4560  -39.8760 C.3    91  VAL91       0.0023
     87  N          2.0170  -13.9290  -40.8390 N.am   92  TYR92      -0.1960
     88  CA         2.8500  -12.7210  -40.9350 C.3    92  TYR92       0.1771
     89  C          2.3550  -11.7910  -42.0430 C.2    92  TYR92       0.2619
     90  O          2.2930  -12.1790  -43.2080 O.2    92  TYR92      -0.2715
     91  CB         4.3230  -13.0940  -41.1530 C.3    92  TYR92       0.0574
     92  CG         5.3010  -11.9370  -41.0230 C.ar   92  TYR92      -0.0198
     93  CD1        5.4680  -11.2660  -39.8020 C.ar   92  TYR92      -0.0009
     94  CD2        6.0790  -11.5200  -42.1150 C.ar   92  TYR92      -0.0009
     95  CE1        6.3870  -10.1980  -39.6680 C.ar   92  TYR92       0.0417
     96  CE2        6.9980  -10.4480  -41.9960 C.ar   92  TYR92       0.0417
     97  CZ         7.1480   -9.7980  -40.7690 C.ar   92  TYR92       0.1957
     98  OH         8.0450   -8.7510  -40.6300 O.3    92  TYR92      -0.2866
     99  N          1.9870  -10.5690  -41.6710 N.am   93  PHE93      -0.1974
    100  CA         1.5240   -9.5870  -42.6500 C.3    93  PHE93       0.1639
    101  C          2.6820   -8.8510  -43.3090 C.2    93  PHE93       0.2290
    102  O          3.5050   -8.2300  -42.6410 O.2    93  PHE93      -0.2864
    103  CB         0.4790   -8.6490  -42.0440 C.3    93  PHE93       0.0560
    104  CG        -0.8990   -9.2550  -41.9960 C.ar   93  PHE93      -0.0200
    105  CD1       -1.3030  -10.0170  -40.9010 C.ar   93  PHE93      -0.0042
    106  CD2       -1.7830   -9.0930  -43.0680 C.ar   93  PHE93      -0.0042
    107  CE1       -2.5660  -10.5870  -40.8550 C.ar   93  PHE93      -0.0003
    108  CE2       -3.0510   -9.6610  -43.0410 C.ar   93  PHE93      -0.0003
    109  CZ        -3.4440  -10.4130  -41.9290 C.ar   93  PHE93      -0.0000
    110  N          5.4720  -21.3680  -36.4040 N.3   150  ARG150     -0.1245
    111  CA         5.8780  -20.5490  -35.2540 C.3   150  ARG150      0.1563
    112  C          7.2700  -20.9200  -34.7350 C.2   150  ARG150      0.2260
    113  O          7.7510  -22.0330  -34.9570 O.2   150  ARG150     -0.2867
    114  CB         4.8450  -20.6260  -34.1220 C.3   150  ARG150      0.0307
    115  CG         5.0360  -19.5540  -33.0470 C.3   150  ARG150      0.0489
    116  CD         3.8430  -19.4290  -32.1060 C.3   150  ARG150      0.2205
    117  NE         2.6100  -19.0230  -32.7860 N.pl3 150  ARG150     -0.0865
    118  CZ         1.4300  -18.8830  -32.1850 C.cat 150  ARG150      0.5346
    119  NH1        1.3060  -19.1040  -30.8810 N.pl3 150  ARG150      0.1354
    120  NH2        0.3660  -18.5220  -32.8880 N.pl3 150  ARG150      0.1354
@<TRIPOS>BOND
     1   101   100    1
     2   101   102    2
     3    90    89    2
     4   106   108   ar
     5   106   104   ar
     6   108   109   ar
     7   100   103    1
     8   100    99    1
     9    94    96   ar
    10    94    92   ar
    11   103   104    1
    12    89    99   am
    13    89    88    1
    14   104   105   ar
    15    96    97   ar
    16   109   107   ar
    17    47    48    1
    18    85    84    1
    19    91    92    1
    20    91    88    1
    21    92    93   ar
    22    88    87    1
    23   105   107   ar
    24    87    82   am
    25    43    44    1
    26    97    98    1
    27    97    95   ar
    28    50    49    2
    29    48    49    1
    30    48    51    1
    31    44    45    1
    32    82    81    1
    33    82    83    2
    34    84    81    1
    35    84    86    1
    36    81    80    1
    37    46    45    2
    38    75    74    2
    39    71    70    1
    40    93    95   ar
    41    51    52    1
    42    69    70    1
    43    69    68    1
    44    74    80   am
    45    74    73    1
    46    77    79    1
    47    77    76    1
    48    34    35    1
    49    52    53   ar
    50    52    54   ar
    51    53    55   ar
    52    68    67    1
    53    36    37    2
    54    36    35    1
    55    54    56   ar
    56    67    64    1
    57    73    72    1
    58    73    76    1
    59    72    65   am
    60    35    38    1
    61    55    57   ar
    62    76    78    1
    63    64    65    1
    64    64    63    1
    65    56    57   ar
    66    65    66    2
    67   110   111    1
    68    38    39    1
    69   111   112    1
    70   111   114    1
    71    39    40    1
    72    16    14    1
    73   113   112    2
    74     7     5    1
    75   114   115    1
    76    32    33   ar
    77    32    30   ar
    78    58    59    1
    79    59    62    1
    80    59    60    1
    81    33    31   ar
    82    40    42   am
    83    40    41    2
    84    15    14    1
    85    14    13    1
    86    61    60    2
    87     5     6    1
    88     5     2    1
    89     8     6    1
    90     4     3    2
    91   115   116    1
    92    30    29   ar
    93   120   118    1
    94   117   118    2
    95   117   116    1
    96    23    22    1
    97    23    17    1
    98    31    29   ar
    99     3     2    1
   100     3     9   am
   101    13    10    1
   102     2     1    1
   103    10     9    1
   104    10    11    1
   105    22    21    1
   106   118   119    1
   107    29    28    1
   108    17    11   am
   109    17    18    1
   110    11    12    2
   111    21    18    1
   112    28    25    1
   113    18    19    1
   114    24    25    1
   115    24    19   am
   116    25    26    1
   117    19    20    2
   118    26    27    2
