@<TRIPOS>MOLECULE
tmp/3d0bA00.pdb
 185 174 0 0 0
SMALL
GASTEIGER

@<TRIPOS>ATOM
      1  N         16.4600  -18.7970  -25.8790 N.3     7  PHE7       -0.1241
      2  CA        16.2200  -17.4850  -25.2750 C.3     7  PHE7        0.1605
      3  C         17.5350  -16.7250  -25.2520 C.2     7  PHE7        0.2264
      4  O         18.5880  -17.3210  -25.0750 O.2     7  PHE7       -0.2867
      5  CB        15.7430  -17.6240  -23.8320 C.3     7  PHE7        0.0534
      6  CG        14.3030  -18.0320  -23.6910 C.ar    7  PHE7       -0.0203
      7  CD1       13.2720  -17.1450  -23.9990 C.ar    7  PHE7       -0.0042
      8  CD2       13.9820  -19.2960  -23.2160 C.ar    7  PHE7       -0.0042
      9  CE1       11.9330  -17.5180  -23.8450 C.ar    7  PHE7       -0.0003
     10  CE2       12.6470  -19.6840  -23.0540 C.ar    7  PHE7       -0.0003
     11  CZ        11.6210  -18.7960  -23.3810 C.ar    7  PHE7       -0.0000
     12  N         -0.8450  -11.6320  -16.2380 N.3    33  LEU33      -0.1245
     13  CA        -1.4010  -12.1930  -17.4640 C.3    33  LEU33       0.1561
     14  C         -2.6960  -11.4830  -17.8780 C.2    33  LEU33       0.2260
     15  O         -2.9120  -11.2370  -19.0670 O.2    33  LEU33      -0.2867
     16  CB        -1.5960  -13.7010  -17.3280 C.3    33  LEU33       0.0270
     17  CG        -0.2870  -14.4500  -17.0340 C.3    33  LEU33       0.0019
     18  CD1       -0.6040  -15.9320  -16.8770 C.3    33  LEU33       0.0001
     19  CD2        0.7730  -14.2400  -18.1210 C.3    33  LEU33       0.0001
     20  N         -1.6430   -8.2740  -19.4680 N.3    36  ASN36      -0.1225
     21  CA        -1.2330   -8.5410  -20.8460 C.3    36  ASN36       0.1785
     22  C         -2.4510   -8.6220  -21.7670 C.2    36  ASN36       0.2597
     23  O         -2.4690   -8.0270  -22.8510 O.2    36  ASN36      -0.2718
     24  CB        -0.4450   -9.8520  -20.9290 C.3    36  ASN36       0.1169
     25  CG         0.9540   -9.7480  -20.3310 C.2    36  ASN36       0.2627
     26  OD1        1.5280   -8.6600  -20.2130 O.2    36  ASN36      -0.2716
     27  ND2        1.5080  -10.8940  -19.9550 N.am   36  ASN36      -0.0877
     28  N         -3.4690   -9.3490  -21.3190 N.am   37  SER37      -0.1952
     29  CA        -4.7200   -9.4720  -22.0650 C.3    37  SER37       0.1924
     30  C         -5.3820   -8.1040  -22.2470 C.2    37  SER37       0.2314
     31  O         -5.7740   -7.7440  -23.3590 O.2    37  SER37      -0.2863
     32  CB        -5.6720  -10.4360  -21.3540 C.3    37  SER37       0.2116
     33  OG        -5.1940  -11.7820  -21.4310 O.3    37  SER37      -0.2180
     34  N         -4.0120   -5.1030  -22.1410 N.3    39  ASP39      -0.1225
     35  CA        -3.2040   -4.3130  -23.0870 C.3    39  ASP39       0.1805
     36  C         -3.4640   -4.7240  -24.5430 C.2    39  ASP39       0.2597
     37  O         -3.5570   -3.8750  -25.4380 O.2    39  ASP39      -0.2718
     38  CB        -1.7110   -4.4420  -22.7750 C.3    39  ASP39       0.1424
     39  CG        -1.3000   -3.7450  -21.4700 C.2    39  ASP39       0.3668
     40  OD1       -2.1240   -3.0490  -20.8340 O.co2  39  ASP39      -0.2456
     41  OD2       -0.1180   -3.9040  -21.0860 O.co2  39  ASP39      -0.2456
     42  N         -3.5720   -6.0360  -24.7760 N.am   40  ALA40      -0.1979
     43  CA        -3.8240   -6.5730  -26.1230 C.3    40  ALA40       0.1597
     44  C         -5.2170   -6.1910  -26.6200 C.2    40  ALA40       0.2287
     45  O         -5.4220   -5.9130  -27.8120 O.2    40  ALA40      -0.2864
     46  CB        -3.6660   -8.0790  -26.1060 C.3    40  ALA40       0.0319
     47  N         -5.2170   -2.5380  -27.5180 N.3    43  LYS43      -0.1245
     48  CA        -4.5100   -2.3400  -28.7870 C.3    43  LYS43       0.1561
     49  C         -5.4010   -2.5830  -30.0030 C.2    43  LYS43       0.2260
     50  O         -5.4790   -1.7400  -30.8940 O.2    43  LYS43      -0.2867
     51  CB        -3.2310   -3.1850  -28.8620 C.3    43  LYS43       0.0271
     52  CG        -2.3410   -2.8020  -30.0510 C.3    43  LYS43       0.0035
     53  CD        -0.9420   -3.3490  -29.8960 C.3    43  LYS43       0.0206
     54  CE         0.0160   -2.6790  -30.8660 C.3    43  LYS43       0.1093
     55  NZ         1.4080   -3.2200  -30.7170 N.3    43  LYS43      -0.1314
     56  N         -8.0030  -14.3450  -24.2850 N.3    78  ASP78      -0.1239
     57  CA        -8.5010  -13.0280  -24.6560 C.3    78  ASP78       0.1674
     58  C         -8.7290  -12.9330  -26.1620 C.2    78  ASP78       0.2266
     59  O         -8.1950  -13.7370  -26.9460 O.2    78  ASP78      -0.2867
     60  CB        -7.5640  -11.9220  -24.1660 C.3    78  ASP78       0.1410
     61  CG        -6.2230  -11.9230  -24.8910 C.2    78  ASP78       0.3668
     62  OD1       -6.2080  -11.6170  -26.1080 O.co2  78  ASP78      -0.2456
     63  OD2       -5.1930  -12.2270  -24.2430 O.co2  78  ASP78      -0.2456
     64  N         -5.3920   -8.2850  -29.6910 N.3    81  ILE81      -0.1231
     65  CA        -4.7200   -8.1540  -30.9800 C.3    81  ILE81       0.1692
     66  C         -3.9850   -9.4280  -31.4350 C.2    81  ILE81       0.2593
     67  O         -3.7810   -9.6430  -32.6280 O.2    81  ILE81      -0.2718
     68  CB        -3.7320   -6.9650  -30.9770 C.3    81  ILE81       0.0266
     69  CG1       -3.2610   -6.6750  -32.4130 C.3    81  ILE81       0.0019
     70  CG2       -2.5690   -7.2230  -29.9950 C.3    81  ILE81       0.0020
     71  CD1       -2.9080   -5.2220  -32.6820 C.3    81  ILE81       0.0001
     72  N         -3.5700  -10.2530  -30.4800 N.am   82  GLY82      -0.1942
     73  CA        -2.8230  -11.4720  -30.8040 C.3    82  GLY82       0.2014
     74  C         -1.3910  -11.1330  -31.1880 C.2    82  GLY82       0.2638
     75  O         -0.9910   -9.9680  -31.1620 O.2    82  GLY82      -0.2714
     76  N         -0.6300  -12.1560  -31.5720 N.am   83  MET83      -0.1976
     77  CA         0.7930  -12.0060  -31.8600 C.3    83  MET83       0.1605
     78  C          1.1720  -12.7240  -33.1500 C.2    83  MET83       0.2287
     79  O          0.7070  -13.8290  -33.4010 O.2    83  MET83      -0.2864
     80  CB         1.6260  -12.5670  -30.7070 C.3    83  MET83       0.0413
     81  CG         1.6160  -11.7070  -29.4380 C.3    83  MET83       0.0598
     82  SD         2.2140  -12.6090  -27.9980 S.3    83  MET83      -0.1393
     83  CE         0.7400  -13.5430  -27.5580 C.3    83  MET83       0.0692
     84  N          6.5260  -11.4650  -33.6620 N.3    87  ASP87      -0.1225
     85  CA         6.3190  -11.1060  -32.2650 C.3    87  ASP87       0.1805
     86  C          6.8800  -12.2010  -31.3730 C.2    87  ASP87       0.2597
     87  O          7.6770  -11.9320  -30.4780 O.2    87  ASP87      -0.2718
     88  CB         4.8270  -10.9320  -31.9590 C.3    87  ASP87       0.1424
     89  CG         4.2600   -9.6310  -32.5030 C.2    87  ASP87       0.3668
     90  OD1        5.0350   -8.6600  -32.6470 O.co2  87  ASP87      -0.2456
     91  OD2        3.0400   -9.5840  -32.7870 O.co2  87  ASP87      -0.2456
     92  N          6.4580  -13.4360  -31.6360 N.am   88  LEU88      -0.1979
     93  CA         6.8480  -14.6020  -30.8240 C.3    88  LEU88       0.1596
     94  C          8.3420  -14.8920  -30.8250 C.2    88  LEU88       0.2287
     95  O          8.9100  -15.2350  -29.7980 O.2    88  LEU88      -0.2864
     96  CB         6.1030  -15.8500  -31.3020 C.3    88  LEU88       0.0297
     97  CG         4.5910  -15.8610  -31.0750 C.3    88  LEU88       0.0022
     98  CD1        3.9840  -17.0950  -31.7280 C.3    88  LEU88       0.0001
     99  CD2        4.3030  -15.8610  -29.5790 C.3    88  LEU88       0.0001
    100  N          9.0200   -9.4980  -29.1390 N.3    92  LEU92      -0.1231
    101  CA         8.7700   -9.5290  -27.7000 C.3    92  LEU92       0.1693
    102  C         10.0600   -9.6970  -26.9060 C.2    92  LEU92       0.2592
    103  O         10.2640   -9.0000  -25.9230 O.2    92  LEU92      -0.2718
    104  CB         7.7530  -10.6110  -27.3450 C.3    92  LEU92       0.0284
    105  CG         6.3440  -10.2770  -27.8550 C.3    92  LEU92       0.0019
    106  CD1        5.4610  -11.5120  -27.8460 C.3    92  LEU92       0.0001
    107  CD2        5.7190   -9.1580  -27.0300 C.3    92  LEU92       0.0001
    108  N         10.9300  -10.5920  -27.3620 N.am   93  GLY93      -0.1957
    109  CA        12.2140  -10.8520  -26.6930 C.3    93  GLY93       0.1869
    110  C         13.1690   -9.6710  -26.7560 C.2    93  GLY93       0.2309
    111  O         13.8890   -9.3860  -25.7860 O.2    93  GLY93      -0.2863
    112  N         11.8140   -7.1950  -24.2910 N.3    96  ALA96      -0.1245
    113  CA        11.9740   -7.7650  -22.9540 C.3    96  ALA96       0.1562
    114  C         13.4040   -7.7210  -22.4020 C.2    96  ALA96       0.2260
    115  O         13.5920   -7.6650  -21.1890 O.2    96  ALA96      -0.2867
    116  CB        11.4510   -9.1950  -22.9110 C.3    96  ALA96       0.0290
    117  N          7.6440   -4.3230  -17.7490 N.3   120  GLY120     -0.1210
    118  CA         7.0910   -4.8370  -19.0010 C.3   120  GLY120      0.1956
    119  C          7.3740   -6.3020  -19.3040 C.2   120  GLY120      0.2611
    120  O          7.2000   -6.7460  -20.4360 O.2   120  GLY120     -0.2717
    121  N          7.8070   -7.0520  -18.2970 N.am  121  VAL121     -0.1979
    122  CA         8.1200   -8.4770  -18.4610 C.3   121  VAL121      0.1595
    123  C          7.2860   -9.3700  -17.5170 C.2   121  VAL121      0.2287
    124  O          7.6980  -10.4870  -17.1530 O.2   121  VAL121     -0.2864
    125  CB         9.6440   -8.7510  -18.3160 C.3   121  VAL121      0.0276
    126  CG1       10.4040   -8.0820  -19.4730 C.3   121  VAL121      0.0022
    127  CG2       10.1650   -8.2460  -16.9770 C.3   121  VAL121      0.0022
    128  N          4.8120  -11.1820  -18.0950 N.3   123  PHE123     -0.1227
    129  CA         4.5000  -12.5170  -18.6600 C.3   123  PHE123      0.1736
    130  C          5.2940  -13.6450  -17.9920 C.2   123  PHE123      0.2595
    131  O          4.7580  -14.7270  -17.7500 O.2   123  PHE123     -0.2718
    132  CB         4.7240  -12.5590  -20.1750 C.3   123  PHE123      0.0547
    133  CG         4.6870  -13.9520  -20.7470 C.ar  123  PHE123     -0.0202
    134  CD1        3.4850  -14.6360  -20.8780 C.ar  123  PHE123     -0.0042
    135  CD2        5.8710  -14.5930  -21.1280 C.ar  123  PHE123     -0.0042
    136  CE1        3.4590  -15.9590  -21.3950 C.ar  123  PHE123     -0.0003
    137  CE2        5.8520  -15.9030  -21.6470 C.ar  123  PHE123     -0.0003
    138  CZ         4.6450  -16.5780  -21.7750 C.ar  123  PHE123     -0.0000
    139  N          6.5760  -13.4040  -17.7130 N.am  124  TYR124     -0.1976
    140  CA         7.4260  -14.4820  -17.2060 C.3   124  TYR124      0.1639
    141  C          7.0690  -14.9010  -15.7860 C.2   124  TYR124      0.2290
    142  O          7.4720  -15.9770  -15.3220 O.2   124  TYR124     -0.2864
    143  CB         8.9000  -14.1190  -17.3100 C.3   124  TYR124      0.0560
    144  CG         9.3270  -13.7220  -18.7010 C.ar  124  TYR124     -0.0198
    145  CD1        9.4790  -14.6700  -19.7120 C.ar  124  TYR124     -0.0009
    146  CD2        9.5860  -12.3880  -18.9960 C.ar  124  TYR124     -0.0009
    147  CE1        9.8850  -14.2850  -21.0140 C.ar  124  TYR124      0.0417
    148  CE2        9.9870  -11.9950  -20.2720 C.ar  124  TYR124      0.0417
    149  CZ        10.1290  -12.9430  -21.2690 C.ar  124  TYR124      0.1957
    150  OH        10.5330  -12.5170  -22.5150 O.3   124  TYR124     -0.2866
    151  N          1.3790  -20.9290  -25.3660 N.3   135  VAL135     -0.1245
    152  CA         0.6820  -19.7270  -25.8020 C.3   135  VAL135      0.1561
    153  C          0.1660  -19.9510  -27.2200 C.2   135  VAL135      0.2260
    154  O          0.9590  -20.0850  -28.1620 O.2   135  VAL135     -0.2867
    155  CB         1.6020  -18.4750  -25.7110 C.3   135  VAL135      0.0252
    156  CG1        0.8840  -17.2320  -26.2290 C.3   135  VAL135      0.0019
    157  CG2        2.0850  -18.2590  -24.2780 C.3   135  VAL135      0.0019
    158  N          3.2770  -21.1960  -29.2140 N.3   147  TRP147     -0.1241
    159  CA         4.5860  -20.9680  -28.6060 C.3   147  TRP147      0.1605
    160  C          4.5820  -21.8110  -27.3430 C.2   147  TRP147      0.2264
    161  O          3.5380  -21.9610  -26.6930 O.2   147  TRP147     -0.2867
    162  CB         4.7170  -19.4780  -28.2560 C.3   147  TRP147      0.0550
    163  CG         5.9480  -19.0590  -27.5020 C.ar  147  TRP147      0.0003
    164  CD1        7.0690  -18.4640  -28.0180 C.ar  147  TRP147      0.0946
    165  CD2        6.1570  -19.1530  -26.0850 C.ar  147  TRP147      0.0152
    166  NE1        7.9750  -18.2040  -27.0070 N.ar  147  TRP147     -0.2442
    167  CE2        7.4390  -18.6150  -25.8120 C.ar  147  TRP147      0.0810
    168  CE3        5.3880  -19.6520  -25.0170 C.ar  147  TRP147      0.0012
    169  CZ2        7.9660  -18.5510  -24.5130 C.ar  147  TRP147      0.0191
    170  CZ3        5.9190  -19.5930  -23.7200 C.ar  147  TRP147      0.0001
    171  CH2        7.1930  -19.0320  -23.4830 C.ar  147  TRP147      0.0015
    172  N         -5.4370  -14.4420  -27.9480 N.3   169  THR169     -0.1218
    173  CA        -4.3900  -15.2460  -27.3160 C.3   169  THR169      0.1862
    174  C         -4.9450  -16.1370  -26.2110 C.2   169  THR169      0.2287
    175  O         -5.8280  -15.7340  -25.4450 O.2   169  THR169     -0.2866
    176  CB        -3.2780  -14.3370  -26.7630 C.3   169  THR169      0.1770
    177  OG1       -2.7370  -13.5510  -27.8350 O.3   169  THR169     -0.2211
    178  CG2       -2.1600  -15.1530  -26.0680 C.3   169  THR169      0.0375
    179  N         -3.1840  -18.2100  -23.1260 N.3   171  VAL171     -0.1245
    180  CA        -2.0110  -18.6050  -22.3420 C.3   171  VAL171      0.1561
    181  C         -2.4000  -19.7820  -21.4570 C.2   171  VAL171      0.2260
    182  O         -3.2080  -19.6370  -20.5260 O.2   171  VAL171     -0.2867
    183  CB        -1.4730  -17.4370  -21.5010 C.3   171  VAL171      0.0252
    184  CG1       -0.2940  -17.8760  -20.6320 C.3   171  VAL171      0.0019
    185  CG2       -1.0830  -16.2650  -22.4270 C.3   171  VAL171      0.0019
@<TRIPOS>BOND
     1    84    85    1
     2    79    78    2
     3    78    77    1
     4    91    89   ar
     5    71    69    1
     6    90    89   ar
     7    67    66    2
     8    89    88    1
     9    69    68    1
    10    85    88    1
    11    85    86    1
    12    77    76    1
    13    77    80    1
    14    98    97    1
    15    92    86   am
    16    92    93    1
    17    76    74   am
    18    66    65    1
    19    66    72   am
    20    86    87    2
    21    96    97    1
    22    96    93    1
    23    74    75    2
    24    74    73    1
    25    97    99    1
    26    65    68    1
    27    65    64    1
    28    68    70    1
    29    50    49    2
    30    54    55    1
    31    54    53    1
    32    94    93    1
    33    94    95    2
    34    73    72    1
    35    80    81    1
    36    52    53    1
    37    52    51    1
    38    49    48    1
    39    81    82    1
    40   158   159    1
    41   100   101    1
    42    51    48    1
    43    48    47    1
    44   159   162    1
    45   159   160    1
    46   162   163    1
    47   154   153    2
    48   164   163   ar
    49   164   166   ar
    50    82    83    1
    51   172   173    1
    52   105   106    1
    53   105   104    1
    54   105   107    1
    55   177   176    1
    56    45    44    2
    57   101   104    1
    58   101   102    1
    59   163   165   ar
    60   108   102   am
    61   108   109    1
    62   160   161    2
    63   173   176    1
    64   173   174    1
    65   153   152    1
    66   166   167   ar
    67    59    58    2
    68   102   103    2
    69   176   178    1
    70   110   109    1
    71   110   111    2
    72    44    43    1
    73   156   155    1
    74   174   175    2
    75    58    57    1
    76    43    46    1
    77    43    42    1
    78    62    61   ar
    79   165   167   ar
    80   165   168   ar
    81     1     2    1
    82   167   169   ar
    83   152   155    1
    84   152   151    1
    85   155   157    1
    86    37    36    2
    87     2     3    1
    88     2     5    1
    89     3     4    2
    90   168   170   ar
    91    61    63   ar
    92    61    60    1
    93    42    36   am
    94    57    56    1
    95    57    60    1
    96    36    35    1
    97   169   171   ar
    98   112   113    1
    99     7     9   ar
   100     7     6   ar
   101     9    11   ar
   102     5     6    1
   103   170   171   ar
   104     6     8   ar
   105    11    10   ar
   106    31    30    2
   107     8    10   ar
   108   179   180    1
   109    35    38    1
   110    35    34    1
   111   113   116    1
   112   113   114    1
   113    23    22    2
   114    38    39    1
   115   150   149    1
   116   185   183    1
   117   114   115    2
   118   180   183    1
   119   180   181    1
   120    30    29    1
   121    29    32    1
   122    29    28    1
   123   138   137   ar
   124   138   136   ar
   125    22    28   am
   126    22    21    1
   127   137   135   ar
   128   183   184    1
   129    39    41   ar
   130    39    40   ar
   131   181   182    2
   132    33    32    1
   133   136   134   ar
   134   149   147   ar
   135   149   148   ar
   136   135   133   ar
   137   147   145   ar
   138    24    21    1
   139    24    25    1
   140   134   133   ar
   141    21    20    1
   142   133   132    1
   143   120   119    2
   144    25    26    2
   145    25    27   am
   146   148   146   ar
   147   132   129    1
   148   145   144   ar
   149   126   125    1
   150   119   118    1
   151   119   121   am
   152    15    14    2
   153   118   117    1
   154   146   144   ar
   155   144   143    1
   156   129   128    1
   157   129   130    1
   158   122   125    1
   159   122   121    1
   160   122   123    1
   161   125   127    1
   162    19    17    1
   163   130   131    2
   164   130   139   am
   165    14    13    1
   166   139   140    1
   167   123   124    2
   168    13    16    1
   169    13    12    1
   170    16    17    1
   171   143   140    1
   172   140   141    1
   173    17    18    1
   174   141   142    2
