@<TRIPOS>MOLECULE
tmp/3d0eB00.pdb
 221 211 0 0 0
SMALL
GASTEIGER

@<TRIPOS>ATOM
      1  N         30.7440  -54.3090    8.5770 N.3    13  LEU13      -0.1231
      2  CA        29.8410  -55.4430    8.3840 C.3    13  LEU13       0.1693
      3  C         30.5530  -56.6160    7.7150 C.2    13  LEU13       0.2593
      4  O         30.2260  -57.7780    7.9660 O.2    13  LEU13      -0.2718
      5  CB        28.6340  -55.0290    7.5340 C.3    13  LEU13       0.0284
      6  CG        27.6900  -53.9910    8.1460 C.3    13  LEU13       0.0019
      7  CD1       26.6520  -53.5480    7.1320 C.3    13  LEU13       0.0001
      8  CD2       27.0200  -54.5390    9.4060 C.3    13  LEU13       0.0001
      9  N         31.5160  -56.3060    6.8550 N.am   14  GLY14      -0.1942
     10  CA        32.2560  -57.3310    6.1300 C.3    14  GLY14       0.2014
     11  C         33.4160  -56.7390    5.3610 C.2    14  GLY14       0.2639
     12  O         33.3780  -55.5750    4.9650 O.2    14  GLY14      -0.2714
     13  N         34.4490  -57.5480    5.1530 N.am   15  LYS15      -0.1963
     14  CA        35.6540  -57.1090    4.4600 C.3    15  LYS15       0.1728
     15  C         36.2720  -58.2600    3.6810 C.2    15  LYS15       0.2616
     16  O         36.2360  -59.4060    4.1220 O.2    15  LYS15      -0.2715
     17  CB        36.6780  -56.5560    5.4590 C.3    15  LYS15       0.0311
     18  CG        37.8170  -55.7890    4.8000 C.3    15  LYS15       0.0038
     19  CD        38.7890  -55.1880    5.8100 C.3    15  LYS15       0.0206
     20  CE        39.8630  -54.3530    5.0990 C.3    15  LYS15       0.1093
     21  NZ        40.8800  -53.7470    6.0240 N.3    15  LYS15      -0.1314
     22  N         36.8330  -57.9380    2.5190 N.am   16  GLY16      -0.1955
     23  CA        37.5630  -58.9070    1.7030 C.3    16  GLY16       0.1869
     24  C         38.5810  -58.2000    0.8320 C.2    16  GLY16       0.2309
     25  O         38.8250  -57.0100    1.0100 O.2    16  GLY16      -0.2863
     26  N         38.2700  -57.5500   -2.2560 N.3    18  PHE18      -0.1241
     27  CA        37.4460  -56.6080   -3.0200 C.3    18  PHE18       0.1605
     28  C         37.4170  -55.2100   -2.3930 C.2    18  PHE18       0.2264
     29  O         37.5350  -54.2030   -3.0900 O.2    18  PHE18      -0.2867
     30  CB        36.0030  -57.1500   -3.1590 C.3    18  PHE18       0.0534
     31  CG        35.1920  -57.1100   -1.8730 C.ar   18  PHE18      -0.0203
     32  CD1       34.3160  -56.0590   -1.6180 C.ar   18  PHE18      -0.0042
     33  CD2       35.3110  -58.1160   -0.9200 C.ar   18  PHE18      -0.0042
     34  CE1       33.5750  -56.0080   -0.4380 C.ar   18  PHE18      -0.0003
     35  CE2       34.5690  -58.0730    0.2640 C.ar   18  PHE18      -0.0003
     36  CZ        33.7040  -57.0160    0.5050 C.ar   18  PHE18      -0.0000
     37  N         32.5220  -53.3270    3.4920 N.3    21  VAL21      -0.1245
     38  CA        31.1250  -52.9280    3.6030 C.3    21  VAL21       0.1561
     39  C         30.8920  -52.4340    5.0280 C.2    21  VAL21       0.2260
     40  O         31.2620  -53.1140    5.9890 O.2    21  VAL21      -0.2867
     41  CB        30.1760  -54.1030    3.2730 C.3    21  VAL21       0.0252
     42  CG1       28.7200  -53.6730    3.3750 C.3    21  VAL21       0.0019
     43  CG2       30.4710  -54.6540    1.8840 C.3    21  VAL21       0.0019
     44  N         23.7780  -49.8330    4.2660 N.3    34  ALA34      -0.1245
     45  CA        25.0980  -50.4310    4.0710 C.3    34  ALA34       0.1562
     46  C         25.7940  -49.7040    2.9240 C.2    34  ALA34       0.2260
     47  O         25.1510  -49.3430    1.9420 O.2    34  ALA34      -0.2867
     48  CB        24.9810  -51.9100    3.7680 C.3    34  ALA34       0.0290
     49  N         29.0990  -50.2750    0.3890 N.3    36  LYS36      -0.1245
     50  CA        30.2600  -51.0090   -0.1000 C.3    36  LYS36       0.1561
     51  C         31.2560  -50.0140   -0.6760 C.2    36  LYS36       0.2260
     52  O         30.9190  -49.2370   -1.5720 O.2    36  LYS36      -0.2867
     53  CB        29.8860  -52.0590   -1.1500 C.3    36  LYS36       0.0271
     54  CG        31.0910  -52.8900   -1.6000 C.3    36  LYS36       0.0035
     55  CD        30.7140  -54.2600   -2.1400 C.3    36  LYS36       0.0206
     56  CE        30.2040  -54.2020   -3.5700 C.3    36  LYS36       0.1093
     57  NZ        30.1530  -55.5650   -4.1740 N.3    36  LYS36      -0.1314
     58  N         27.6890  -53.6910  -12.3080 N.3    55  GLU55      -0.1245
     59  CA        27.0330  -53.8360  -11.0000 C.3    55  GLU55       0.1567
     60  C         26.1310  -52.6340  -10.7300 C.2    55  GLU55       0.2260
     61  O         24.9800  -52.8030  -10.3440 O.2    55  GLU55      -0.2867
     62  CB        28.0670  -53.9960   -9.8850 C.3    55  GLU55       0.0388
     63  CG        27.4700  -54.2380   -8.4860 C.3    55  GLU55       0.1160
     64  CD        28.5230  -54.5620   -7.4400 C.2    55  GLU55       0.3649
     65  OE1       29.7180  -54.5990   -7.7880 O.co2  55  GLU55      -0.2457
     66  OE2       28.1560  -54.7840   -6.2620 O.co2  55  GLU55      -0.2457
     67  N         21.7820  -52.5410  -11.1180 N.3    59  LEU59      -0.1245
     68  CA        21.0670  -52.0870   -9.9250 C.3    59  LEU59       0.1561
     69  C         20.2130  -50.8360  -10.1610 C.2    59  LEU59       0.2260
     70  O         19.1720  -50.6690   -9.5250 O.2    59  LEU59      -0.2867
     71  CB        22.0460  -51.8330   -8.7810 C.3    59  LEU59       0.0270
     72  CG        22.6210  -53.1020   -8.1560 C.3    59  LEU59       0.0019
     73  CD1       23.7450  -52.7530   -7.2040 C.3    59  LEU59       0.0001
     74  CD2       21.5190  -53.8730   -7.4510 C.3    59  LEU59       0.0001
     75  N         18.5040  -56.4960   -3.5360 N.3    68  THR68      -0.1203
     76  CA        18.9080  -55.3340   -2.7430 C.3    68  THR68       0.1994
     77  C         18.7790  -54.0530   -3.5730 C.2    68  THR68       0.2618
     78  O         19.2600  -53.9770   -4.7010 O.2    68  THR68      -0.2717
     79  CB        20.3510  -55.4820   -2.2090 C.3    68  THR68       0.1784
     80  OG1       20.4350  -56.6490   -1.3800 O.3    68  THR68      -0.2211
     81  CG2       20.7750  -54.2610   -1.3980 C.3    68  THR68       0.0376
     82  N         18.1040  -53.0610   -3.0090 N.am   69  ALA69      -0.1965
     83  CA        17.8670  -51.7970   -3.6960 C.3    69  ALA69       0.1728
     84  C         19.0420  -50.8460   -3.4610 C.2    69  ALA69       0.2616
     85  O         19.4800  -50.6530   -2.3210 O.2    69  ALA69      -0.2715
     86  CB        16.5710  -51.1770   -3.2200 C.3    69  ALA69       0.0334
     87  N         19.5550  -50.2850   -4.5550 N.am   70  LEU70      -0.1977
     88  CA        20.6220  -49.2840   -4.5270 C.3    70  LEU70       0.1596
     89  C         20.0370  -47.8860   -4.3090 C.2    70  LEU70       0.2287
     90  O         19.1310  -47.4810   -5.0230 O.2    70  LEU70      -0.2864
     91  CB        21.3850  -49.3080   -5.8570 C.3    70  LEU70       0.0297
     92  CG        22.6440  -48.4450   -5.9890 C.3    70  LEU70       0.0022
     93  CD1       23.7150  -48.8920   -5.0100 C.3    70  LEU70       0.0001
     94  CD2       23.1780  -48.4820   -7.4200 C.3    70  LEU70       0.0001
     95  N         28.9190  -47.8020   -3.1360 N.3    82  PHE82      -0.1241
     96  CA        27.5180  -48.1730   -3.2850 C.3    82  PHE82       0.1605
     97  C         26.8290  -47.9790   -1.9400 C.2    82  PHE82       0.2264
     98  O         27.2350  -48.5980   -0.9560 O.2    82  PHE82      -0.2867
     99  CB        27.3790  -49.6540   -3.6590 C.3    82  PHE82       0.0534
    100  CG        27.9990  -50.0290   -4.9730 C.ar   82  PHE82      -0.0203
    101  CD1       29.3430  -50.3650   -5.0510 C.ar   82  PHE82      -0.0042
    102  CD2       27.2250  -50.0930   -6.1260 C.ar   82  PHE82      -0.0042
    103  CE1       29.9110  -50.7310   -6.2670 C.ar   82  PHE82      -0.0003
    104  CE2       27.7820  -50.4610   -7.3410 C.ar   82  PHE82      -0.0003
    105  CZ        29.1230  -50.7840   -7.4120 C.ar   82  PHE82      -0.0000
    106  N         23.3260  -48.7750   -0.1430 N.3    84  MET84      -0.1230
    107  CA        22.2630  -49.7420   -0.4110 C.3    84  MET84       0.1702
    108  C         21.4870  -50.1250    0.8500 C.2    84  MET84       0.2592
    109  O         21.9040  -49.8210    1.9720 O.2    84  MET84      -0.2718
    110  CB        22.8740  -50.9990   -1.0390 C.3    84  MET84       0.0401
    111  CG        23.4750  -51.9420   -0.0120 C.3    84  MET84       0.0596
    112  SD        24.7370  -53.0440   -0.6290 S.3    84  MET84      -0.1393
    113  CE        26.2230  -52.1980   -0.0780 C.3    84  MET84       0.0692
    114  N         20.3620  -50.8110    0.6550 N.am   85  GLU85      -0.1966
    115  CA        19.5580  -51.3180    1.7710 C.3    85  GLU85       0.1733
    116  C         20.4060  -52.1670    2.7200 C.2    85  GLU85       0.2616
    117  O         21.0790  -53.0950    2.2730 O.2    85  GLU85      -0.2715
    118  CB        18.4090  -52.1890    1.2530 C.3    85  GLU85       0.0429
    119  CG        17.2840  -51.4360    0.5770 C.3    85  GLU85       0.1163
    120  CD        16.1880  -52.3630    0.0690 C.2    85  GLU85       0.3649
    121  OE1       14.9940  -52.0480    0.2930 O.co2  85  GLU85      -0.2457
    122  OE2       16.5170  -53.4030   -0.5530 O.co2  85  GLU85      -0.2457
    123  N         20.3600  -51.8460    4.0150 N.am   86  TYR86      -0.1960
    124  CA        20.9890  -52.6600    5.0630 C.3    86  TYR86       0.1771
    125  C         20.1310  -53.8870    5.3470 C.2    86  TYR86       0.2619
    126  O         18.9910  -53.7630    5.8080 O.2    86  TYR86      -0.2715
    127  CB        21.1780  -51.8400    6.3460 C.3    86  TYR86       0.0574
    128  CG        21.6710  -52.6180    7.5630 C.ar   86  TYR86      -0.0198
    129  CD1       22.8020  -53.4310    7.4960 C.ar   86  TYR86      -0.0009
    130  CD2       21.0250  -52.4970    8.7970 C.ar   86  TYR86      -0.0009
    131  CE1       23.2630  -54.1300    8.6270 C.ar   86  TYR86       0.0417
    132  CE2       21.4720  -53.1880    9.9240 C.ar   86  TYR86       0.0417
    133  CZ        22.5910  -53.9970    9.8370 C.ar   86  TYR86       0.1957
    134  OH        23.0220  -54.6700   10.9630 O.3    86  TYR86      -0.2866
    135  N         20.6810  -55.0670    5.0640 N.am   87  ALA87      -0.1977
    136  CA        19.9870  -56.3220    5.3210 C.3    87  ALA87       0.1597
    137  C         20.2510  -56.7390    6.7630 C.2    87  ALA87       0.2287
    138  O         21.2320  -57.4310    7.0500 O.2    87  ALA87      -0.2864
    139  CB        20.4440  -57.3930    4.3520 C.3    87  ALA87       0.0319
    140  N         23.6140  -62.7170    6.4520 N.3    91  GLU91      -0.1245
    141  CA        23.7240  -63.7400    5.4170 C.3    91  GLU91       0.1567
    142  C         23.0960  -65.0540    5.8420 C.2    91  GLU91       0.2260
    143  O         23.1810  -65.4300    7.0120 O.2    91  GLU91      -0.2867
    144  CB        25.1990  -64.0670    5.1580 C.3    91  GLU91       0.0388
    145  CG        26.0130  -62.9660    4.5670 C.3    91  GLU91       0.1160
    146  CD        27.5050  -63.2310    4.6620 C.2    91  GLU91       0.3649
    147  OE1       27.9230  -64.3910    4.8950 O.co2  91  GLU91      -0.2457
    148  OE2       28.2640  -62.2600    4.5030 O.co2  91  GLU91      -0.2457
    149  N         26.5250  -66.7790    1.0180 N.3   134  GLU134     -0.1231
    150  CA        27.1650  -65.5260    1.3790 C.3   134  GLU134      0.1699
    151  C         26.5160  -64.2880    0.7290 C.2   134  GLU134      0.2592
    152  O         26.6200  -63.1850    1.2580 O.2   134  GLU134     -0.2718
    153  CB        28.6320  -65.6130    0.9610 C.3   134  GLU134      0.0402
    154  CG        29.5500  -64.7100    1.7040 C.3   134  GLU134      0.1161
    155  CD        30.9550  -64.6950    1.1230 C.2   134  GLU134      0.3649
    156  OE1       31.2410  -65.5220    0.2300 O.co2 134  GLU134     -0.2457
    157  OE2       31.7790  -63.8680    1.5650 O.co2 134  GLU134     -0.2457
    158  N         25.8600  -64.4790   -0.4170 N.am  135  ASN135     -0.1974
    159  CA        25.2110  -63.3880   -1.1540 C.3   135  ASN135      0.1688
    160  C         23.6940  -63.3650   -0.9770 C.2   135  ASN135      0.2292
    161  O         23.0000  -62.5710   -1.6120 O.2   135  ASN135     -0.2864
    162  CB        25.5500  -63.4850   -2.6450 C.3   135  ASN135      0.1181
    163  CG        27.0070  -63.1730   -2.9380 C.2   135  ASN135      0.2629
    164  OD1       27.7340  -62.6450   -2.0860 O.2   135  ASN135     -0.2716
    165  ND2       27.4440  -63.4900   -4.1560 N.am  135  ASN135     -0.0877
    166  N         21.0950  -62.6060    1.6820 N.3   137  MET137     -0.1245
    167  CA        20.8980  -61.9960    2.9830 C.3   137  MET137      0.1570
    168  C         19.4200  -61.9720    3.3090 C.2   137  MET137      0.2261
    169  O         18.6000  -62.3780    2.4920 O.2   137  MET137     -0.2867
    170  CB        21.5300  -60.6090    3.0040 C.3   137  MET137      0.0387
    171  CG        23.0420  -60.6910    2.8100 C.3   137  MET137      0.0595
    172  SD        23.9210  -59.1800    3.1830 S.3   137  MET137     -0.1393
    173  CE        23.8780  -59.1570    4.9720 C.3   137  MET137      0.0692
    174  N         22.4080  -59.9280   -2.6590 N.3   147  THR147     -0.1203
    175  CA        23.3880  -58.8480   -2.6480 C.3   147  THR147      0.1994
    176  C         24.5620  -59.1910   -3.5580 C.2   147  THR147      0.2618
    177  O         24.6960  -60.3230   -4.0150 O.2   147  THR147     -0.2717
    178  CB        23.9250  -58.5900   -1.2260 C.3   147  THR147      0.1784
    179  OG1       24.6790  -59.7230   -0.7850 O.3   147  THR147     -0.2211
    180  CG2       22.7820  -58.3370   -0.2460 C.3   147  THR147      0.0376
    181  N         25.4050  -58.1970   -3.8100 N.am  148  ASP148     -0.1959
    182  CA        26.6380  -58.3470   -4.5990 C.3   148  ASP148      0.1840
    183  C         26.3880  -58.7640   -6.0520 C.2   148  ASP148      0.2622
    184  O         26.4910  -59.9410   -6.4060 O.2   148  ASP148     -0.2715
    185  CB        27.6220  -59.3070   -3.9210 C.3   148  ASP148      0.1450
    186  CG        29.0600  -59.0940   -4.3850 C.2   148  ASP148      0.3671
    187  OD1       29.2800  -58.4030   -5.4060 O.co2 148  ASP148     -0.2456
    188  OD2       29.9800  -59.6170   -3.7190 O.co2 148  ASP148     -0.2456
    189  N         26.1000  -57.7740   -6.8920 N.am  149  PHE149     -0.1974
    190  CA        25.8340  -57.9910   -8.3130 C.3   149  PHE149      0.1639
    191  C         27.0870  -57.7490   -9.1650 C.2   149  PHE149      0.2290
    192  O         26.9900  -57.4050  -10.3420 O.2   149  PHE149     -0.2864
    193  CB        24.6660  -57.0960   -8.7520 C.3   149  PHE149      0.0560
    194  CG        23.3600  -57.4650   -8.1030 C.ar  149  PHE149     -0.0200
    195  CD1       23.0970  -57.1040   -6.7950 C.ar  149  PHE149     -0.0042
    196  CD2       22.4040  -58.1930   -8.7920 C.ar  149  PHE149     -0.0042
    197  CE1       21.8990  -57.4540   -6.1860 C.ar  149  PHE149     -0.0003
    198  CE2       21.2000  -58.5470   -8.1870 C.ar  149  PHE149     -0.0003
    199  CZ        20.9520  -58.1770   -6.8810 C.ar  149  PHE149     -0.0000
    200  N         25.8050  -60.5050   12.1010 N.3   293  PHE293     -0.1241
    201  CA        27.0630  -60.3170   11.3950 C.3   293  PHE293      0.1605
    202  C         28.1800  -60.8140   12.3060 C.2   293  PHE293      0.2264
    203  O         28.0810  -60.7100   13.5290 O.2   293  PHE293     -0.2867
    204  CB        27.2630  -58.8390   11.0360 C.3   293  PHE293      0.0534
    205  CG        26.3050  -58.3390    9.9870 C.ar  293  PHE293     -0.0203
    206  CD1       25.0090  -57.9720   10.3260 C.ar  293  PHE293     -0.0042
    207  CD2       26.6940  -58.2550    8.6580 C.ar  293  PHE293     -0.0042
    208  CE1       24.1200  -57.5310    9.3600 C.ar  293  PHE293     -0.0003
    209  CE2       25.8120  -57.8130    7.6850 C.ar  293  PHE293     -0.0003
    210  CZ        24.5190  -57.4460    8.0390 C.ar  293  PHE293     -0.0000
    211  N         34.3110  -59.1390   11.9720 N.3   297  PHE297     -0.1241
    212  CA        34.2350  -57.8730   11.2410 C.3   297  PHE297      0.1605
    213  C         33.7920  -56.6940   12.1110 C.2   297  PHE297      0.2264
    214  O         34.4250  -55.6410   12.0940 O.2   297  PHE297     -0.2867
    215  CB        33.2830  -58.0090   10.0550 C.3   297  PHE297      0.0534
    216  CG        33.6950  -59.0570    9.0620 C.ar  297  PHE297     -0.0203
    217  CD1       32.8610  -60.1310    8.7770 C.ar  297  PHE297     -0.0042
    218  CD2       34.9160  -58.9700    8.4080 C.ar  297  PHE297     -0.0042
    219  CE1       33.2350  -61.0970    7.8560 C.ar  297  PHE297     -0.0003
    220  CE2       35.2980  -59.9310    7.4860 C.ar  297  PHE297     -0.0003
    221  CZ        34.4560  -60.9980    7.2090 C.ar  297  PHE297     -0.0000
@<TRIPOS>BOND
     1    58    59    1
     2    67    68    1
     3    59    60    1
     4    59    62    1
     5    60    61    2
     6   192   191    2
     7    69    68    1
     8    69    70    2
     9    68    71    1
    10    62    63    1
    11   191   190    1
    12   196   198   ar
    13   196   194   ar
    14    71    72    1
    15   193   190    1
    16   193   194    1
    17    63    64    1
    18   190   189    1
    19   198   199   ar
    20    72    74    1
    21    72    73    1
    22   194   195   ar
    23    65    64   ar
    24    64    66   ar
    25    94    92    1
    26   105   104   ar
    27   105   103   ar
    28   104   102   ar
    29   189   183   am
    30   199   197   ar
    31   195   197   ar
    32   184   183    2
    33   103   101   ar
    34   102   100   ar
    35   183   182    1
    36    92    91    1
    37    92    93    1
    38    91    88    1
    39   187   186   ar
    40   101   100   ar
    41    90    89    2
    42   100    99    1
    43    78    77    2
    44   182   185    1
    45   182   181    1
    46    87    88    1
    47    87    84   am
    48    88    89    1
    49   186   185    1
    50   186   188   ar
    51    57    56    1
    52   165   163   am
    53   177   176    2
    54   181   176   am
    55    83    84    1
    56    83    86    1
    57    83    82    1
    58    99    96    1
    59    77    82   am
    60    77    76    1
    61    56    55    1
    62   176   175    1
    63    75    76    1
    64    84    85    2
    65    96    95    1
    66    96    97    1
    67    30    27    1
    68    30    31    1
    69    29    28    2
    70    27    28    1
    71    27    26    1
    72   163   162    1
    73   163   164    2
    74    76    79    1
    75   174   175    1
    76   175   178    1
    77   162   159    1
    78    79    81    1
    79    79    80    1
    80    55    54    1
    81    97    98    2
    82    31    32   ar
    83    31    33   ar
    84    32    34   ar
    85   161   160    2
    86    54    53    1
    87    52    51    2
    88   178   179    1
    89   178   180    1
    90   159   160    1
    91   159   158    1
    92    53    50    1
    93   110   107    1
    94   110   111    1
    95    33    35   ar
    96    51    50    1
    97   112   113    1
    98   112   111    1
    99   122   120   ar
   100    34    36   ar
   101   158   151   am
   102   107   106    1
   103   107   108    1
   104    50    49    1
   105   120   121   ar
   106   120   119    1
   107   156   155   ar
   108    35    36   ar
   109   119   118    1
   110   114   108   am
   111   114   115    1
   112   151   152    2
   113   151   150    1
   114    24    25    2
   115    24    23    1
   116   108   109    2
   117   153   150    1
   118   153   154    1
   119   149   150    1
   120   155   157   ar
   121   155   154    1
   122   118   115    1
   123   166   167    1
   124    23    22    1
   125   115   116    1
   126    43    41    1
   127    47    46    2
   128   117   116    2
   129   169   168    2
   130    22    15   am
   131   116   123   am
   132   171   170    1
   133   171   172    1
   134    46    45    1
   135   167   170    1
   136   167   168    1
   137   172   173    1
   138    41    42    1
   139    41    38    1
   140    37    38    1
   141    38    39    1
   142    15    16    2
   143    15    14    1
   144    48    45    1
   145   123   124    1
   146    45    44    1
   147   139   136    1
   148    14    13    1
   149    14    17    1
   150   148   146   ar
   151   145   146    1
   152   145   144    1
   153   146   147   ar
   154    18    17    1
   155    18    19    1
   156    12    11    2
   157    39    40    2
   158   124   125    1
   159   124   127    1
   160   135   136    1
   161   135   125   am
   162    20    19    1
   163    20    21    1
   164    13    11   am
   165   144   141    1
   166   136   137    1
   167   125   126    2
   168    11    10    1
   169   141   142    1
   170   141   140    1
   171   142   143    2
   172    10     9    1
   173   127   128    1
   174   137   138    2
   175     9     3   am
   176     7     6    1
   177   221   220   ar
   178   221   219   ar
   179   220   218   ar
   180   129   128   ar
   181   129   131   ar
   182     5     6    1
   183     5     2    1
   184   128   130   ar
   185   209   210   ar
   186   209   207   ar
   187     3     4    2
   188     3     2    1
   189   219   217   ar
   190   210   208   ar
   191     6     8    1
   192     2     1    1
   193   218   216   ar
   194   131   133   ar
   195   207   205   ar
   196   217   216   ar
   197   130   132   ar
   198   216   215    1
   199   208   206   ar
   200   133   132   ar
   201   133   134    1
   202   205   206   ar
   203   205   204    1
   204   215   212    1
   205   204   201    1
   206   212   211    1
   207   212   213    1
   208   201   200    1
   209   201   202    1
   210   214   213    2
   211   202   203    2
