@<TRIPOS>MOLECULE
tmp/3d0lA00.pdb
 106 106 0 0 0
SMALL
GASTEIGER

@<TRIPOS>ATOM
      1  N         -9.5680   21.6560   24.9830 N.3     1  ALA1       -0.1231
      2  CA        -8.6640   21.7210   23.7960 C.3     1  ALA1        0.1694
      3  C         -8.5730   20.3660   23.1000 C.2     1  ALA1        0.2591
      4  O         -8.8570   19.3250   23.6980 O.2     1  ALA1       -0.2718
      5  CB        -7.2750   22.1740   24.2260 C.3     1  ALA1        0.0304
      6  N         -8.1820   20.3820   21.8310 N.am    2  LEU2       -0.1980
      7  CA        -8.0470   19.1430   21.0910 C.3     2  LEU2        0.1596
      8  C         -6.8220   18.4240   21.6230 C.2     2  LEU2        0.2287
      9  O         -5.7060   18.9470   21.5670 O.2     2  LEU2       -0.2864
     10  CB        -7.8750   19.4180   19.5960 C.3     2  LEU2        0.0297
     11  CG        -7.8580   18.1490   18.7370 C.3     2  LEU2        0.0022
     12  CD1       -8.9730   18.2210   17.7080 C.3     2  LEU2        0.0001
     13  CD2       -6.5020   17.9790   18.0730 C.3     2  LEU2        0.0001
     14  N        -10.8260   14.8470   18.6060 N.3    27  GLN27      -0.1245
     15  CA       -11.8570   15.1830   17.6230 C.3    27  GLN27       0.1566
     16  C        -11.2720   14.9730   16.2370 C.2    27  GLN27       0.2260
     17  O        -10.0530   14.9750   16.0690 O.2    27  GLN27      -0.2867
     18  CB       -12.3070   16.6420   17.7520 C.3    27  GLN27       0.0367
     19  CG       -13.2710   16.9190   18.8890 C.3    27  GLN27       0.0905
     20  CD       -13.5690   18.3980   19.0320 C.2    27  GLN27       0.2608
     21  OE1      -14.2280   18.9990   18.1810 O.2    27  GLN27      -0.2717
     22  NE2      -13.0690   18.9980   20.1090 N.am   27  GLN27      -0.0878
     23  N         -9.6650   15.5730   10.1310 N.3    30  THR30      -0.1203
     24  CA        -9.6330   15.1920    8.7250 C.3    30  THR30       0.1994
     25  C         -8.2560   14.6520    8.3080 C.2    30  THR30       0.2619
     26  O         -7.8050   13.6380    8.8390 O.2    30  THR30      -0.2717
     27  CB       -10.0660   16.3830    7.8200 C.3    30  THR30       0.1784
     28  OG1       -9.1200   17.4560    7.9250 O.3    30  THR30      -0.2211
     29  CG2      -11.4370   16.8910    8.2490 C.3    30  THR30       0.0376
     30  N         -7.5920   15.3090    7.3650 N.am   31  SER31      -0.1937
     31  CA        -6.2730   14.8590    6.9240 C.3    31  SER31       0.2055
     32  C         -5.1900   15.8440    7.3740 C.2    31  SER31       0.2642
     33  O         -4.0170   15.6820    7.0530 O.2    31  SER31      -0.2714
     34  CB        -6.2400   14.7330    5.3960 C.3    31  SER31       0.2130
     35  OG        -6.3030   16.0080    4.7760 O.3    31  SER31      -0.2179
     36  N         -5.5900   16.8540    8.1370 N.am   32  ALA32      -0.1977
     37  CA        -4.6640   17.8810    8.6020 C.3    32  ALA32       0.1597
     38  C         -3.7390   17.4700    9.7470 C.2    32  ALA32       0.2287
     39  O         -3.7740   18.0680   10.8200 O.2    32  ALA32      -0.2864
     40  CB        -5.4460   19.1310    8.9930 C.3    32  ALA32       0.0319
     41  N         -0.1690   16.5370    5.5430 N.3    50  ASP50      -0.1239
     42  CA        -1.5150   16.1520    5.1560 C.3    50  ASP50       0.1674
     43  C         -1.8140   14.6780    5.4480 C.2    50  ASP50       0.2266
     44  O         -2.5520   14.0220    4.7090 O.2    50  ASP50      -0.2867
     45  CB        -1.7370   16.4730    3.6690 C.3    50  ASP50       0.1410
     46  CG        -3.2100   16.5160    3.2950 C.2    50  ASP50       0.3668
     47  OD1       -4.0220   16.9480    4.1380 O.co2  50  ASP50      -0.2456
     48  OD2       -3.5600   16.1360    2.1600 O.co2  50  ASP50      -0.2456
     49  N         -3.4470   20.6110   12.1590 N.3    91  LEU91      -0.1231
     50  CA        -3.6000   22.0070   11.7700 C.3    91  LEU91       0.1693
     51  C         -4.9950   22.2140   11.1960 C.2    91  LEU91       0.2592
     52  O         -5.1840   22.9640   10.2340 O.2    91  LEU91      -0.2718
     53  CB        -2.5390   22.3950   10.7280 C.3    91  LEU91       0.0284
     54  CG        -1.0640   22.2210   11.1040 C.3    91  LEU91       0.0019
     55  CD1       -0.6030   20.8020   10.7880 C.3    91  LEU91       0.0001
     56  CD2       -0.2240   23.2140   10.3270 C.3    91  LEU91       0.0001
     57  N         -5.9660   21.5380   11.8040 N.am   92  HIS92      -0.1962
     58  CA        -7.3600   21.6130   11.3800 C.3    92  HIS92       0.1787
     59  C         -8.1440   22.5670   12.2750 C.2    92  HIS92       0.2620
     60  O         -9.0840   23.2240   11.8300 O.2    92  HIS92      -0.2715
     61  CB        -7.9870   20.2210   11.4410 C.3    92  HIS92       0.0785
     62  CG        -9.4090   20.1730   10.9800 C.ar   92  HIS92       0.0821
     63  ND1       -9.7770   20.4040    9.6720 N.ar   92  HIS92      -0.2267
     64  CD2      -10.5550   19.9090   11.6520 C.ar   92  HIS92       0.1154
     65  CE1      -11.0890   20.2810    9.5570 C.ar   92  HIS92       0.1986
     66  NE2      -11.5840   19.9820   10.7440 N.ar   92  HIS92      -0.2212
     67  N         -7.7470   22.6340   13.5410 N.am   93  PHE93      -0.1960
     68  CA        -8.3970   23.4950   14.5170 C.3    93  PHE93       0.1771
     69  C         -7.3770   24.4120   15.1600 C.2    93  PHE93       0.2620
     70  O         -6.2000   24.0790   15.2500 O.2    93  PHE93      -0.2715
     71  CB        -9.0040   22.6810   15.6620 C.3    93  PHE93       0.0574
     72  CG       -10.1590   21.8130   15.2760 C.ar   93  PHE93      -0.0200
     73  CD1      -11.4130   22.3610   15.0470 C.ar   93  PHE93      -0.0042
     74  CD2      -10.0090   20.4310   15.2200 C.ar   93  PHE93      -0.0042
     75  CE1      -12.5070   21.5440   14.7820 C.ar   93  PHE93      -0.0003
     76  CE2      -11.0940   19.6070   14.9560 C.ar   93  PHE93      -0.0003
     77  CZ       -12.3450   20.1620   14.7360 C.ar   93  PHE93      -0.0000
     78  N         -7.8420   25.5680   15.6120 N.am   94  TYR94      -0.1960
     79  CA        -6.9850   26.4880   16.3280 C.3    94  TYR94       0.1756
     80  C         -7.3670   26.1920   17.7660 C.2    94  TYR94       0.2461
     81  O         -8.5500   26.0250   18.0780 O.2    94  TYR94      -0.2730
     82  CB        -7.3240   27.9540   16.0250 C.3    94  TYR94       0.0574
     83  CG        -6.8210   28.4550   14.6990 C.ar   94  TYR94      -0.0198
     84  CD1       -5.4570   28.4590   14.4040 C.ar   94  TYR94      -0.0009
     85  CD2       -7.7090   28.9140   13.7290 C.ar   94  TYR94      -0.0009
     86  CE1       -4.9920   28.9030   13.1760 C.ar   94  TYR94       0.0417
     87  CE2       -7.2550   29.3610   12.4950 C.ar   94  TYR94       0.0417
     88  CZ        -5.8970   29.3520   12.2230 C.ar   94  TYR94       0.1957
     89  OH        -5.4520   29.7800   10.9920 O.3    94  TYR94      -0.2866
     90  N         -6.3730   26.0690   18.6480 N.am   95  PRO95      -0.2716
     91  CA        -4.9600   26.2030   18.2940 C.3    95  PRO95       0.1536
     92  C         -4.4100   24.9340   17.6160 C.2    95  PRO95       0.2598
     93  O         -5.0410   23.8750   17.6420 O.2    95  PRO95      -0.2715
     94  CB        -4.3030   26.4710   19.6420 C.3    95  PRO95       0.0310
     95  CG        -5.1710   25.7000   20.5850 C.3    95  PRO95       0.0237
     96  CD        -6.5500   26.0510   20.1090 C.3    95  PRO95       0.0939
     97  N         -3.2370   25.0540   17.0040 N.am   96  HIS96      -0.1974
     98  CA        -2.6010   23.9240   16.3410 C.3    96  HIS96       0.1656
     99  C         -1.8530   23.1220   17.3950 C.2    96  HIS96       0.2291
    100  O         -0.8260   23.5540   17.9110 O.2    96  HIS96      -0.2864
    101  CB        -1.6390   24.4220   15.2660 C.3    96  HIS96       0.0771
    102  CG        -2.3290   24.9970   14.0700 C.ar   96  HIS96       0.0820
    103  ND1       -1.6690   25.7400   13.1120 N.ar   96  HIS96      -0.2267
    104  CD2       -3.6170   24.9170   13.6610 C.ar   96  HIS96       0.1154
    105  CE1       -2.5200   26.0890   12.1650 C.ar   96  HIS96       0.1986
    106  NE2       -3.7090   25.6030   12.4730 N.ar   96  HIS96      -0.2212
@<TRIPOS>BOND
     1    48    46   ar
     2    46    45    1
     3    46    47   ar
     4    45    42    1
     5    44    43    2
     6    35    34    1
     7    42    43    1
     8    42    41    1
     9    34    31    1
    10    31    30    1
    11    31    32    1
    12    33    32    2
    13    30    25   am
    14    32    36   am
    15    27    28    1
    16    27    29    1
    17    27    24    1
    18    36    37    1
    19    25    24    1
    20    25    26    2
    21    37    40    1
    22    37    38    1
    23    24    23    1
    24    65    63   ar
    25    65    66   ar
    26    63    62   ar
    27    38    39    2
    28    52    51    2
    29    56    54    1
    30    53    54    1
    31    53    50    1
    32    66    64   ar
    33    55    54    1
    34    62    61    1
    35    62    64   ar
    36    89    88    1
    37    51    50    1
    38    51    57   am
    39    58    61    1
    40    58    57    1
    41    58    59    1
    42    50    49    1
    43    60    59    2
    44   105   106   ar
    45   105   103   ar
    46    88    87   ar
    47    88    86   ar
    48    59    67   am
    49   106   104   ar
    50    87    85   ar
    51   103   102   ar
    52    86    84   ar
    53    67    68    1
    54   104   102   ar
    55    85    83   ar
    56   102   101    1
    57    84    83   ar
    58    68    69    1
    59    68    71    1
    60    83    82    1
    61    77    75   ar
    62    77    76   ar
    63    75    73   ar
    64    76    74   ar
    65    73    72   ar
    66    69    70    2
    67    69    78   am
    68    74    72   ar
    69   101    98    1
    70    72    71    1
    71    78    79    1
    72    82    79    1
    73    17    16    2
    74    16    15    1
    75    79    80    1
    76    98    97    1
    77    98    99    1
    78    97    92   am
    79    99   100    2
    80    92    93    2
    81    92    91    1
    82    15    18    1
    83    15    14    1
    84    12    11    1
    85    18    19    1
    86    80    81    2
    87    80    90   am
    88    13    11    1
    89    21    20    2
    90    91    90    1
    91    91    94    1
    92    90    96    1
    93    11    10    1
    94    19    20    1
    95    20    22   am
    96    10     7    1
    97    94    95    1
    98    96    95    1
    99     7     8    1
   100     7     6    1
   101     9     8    2
   102     6     3   am
   103     3     4    2
   104     3     2    1
   105     2     5    1
   106     2     1    1
