@<TRIPOS>MOLECULE
tmp/3d0qA00.pdb
 102 97 0 0 0
SMALL
GASTEIGER

@<TRIPOS>ATOM
      1  N        -34.2620  -23.7770  -22.2470 N.3    10  GLY10      -0.1210
      2  CA       -34.3210  -24.7940  -23.2820 C.3    10  GLY10       0.1956
      3  C        -34.2600  -26.1830  -22.6840 C.2    10  GLY10       0.2611
      4  O        -33.5550  -26.4190  -21.6950 O.2    10  GLY10      -0.2717
      5  N        -34.9970  -27.1020  -23.2980 N.am   11  ILE11      -0.1979
      6  CA       -35.0620  -28.4900  -22.8450 C.3    11  ILE11       0.1595
      7  C        -33.6680  -29.1210  -22.8390 C.2    11  ILE11       0.2287
      8  O        -32.9200  -29.0130  -23.8140 O.2    11  ILE11      -0.2864
      9  CB       -36.0930  -29.3240  -23.6740 C.3    11  ILE11       0.0276
     10  CG1      -37.4700  -28.6370  -23.6390 C.3    11  ILE11       0.0022
     11  CG2      -36.1560  -30.7780  -23.1780 C.3    11  ILE11       0.0022
     12  CD1      -38.5850  -29.3420  -24.4020 C.3    11  ILE11       0.0001
     13  N        -31.0510  -28.3430  -21.0710 N.3    13  HIS13      -0.1241
     14  CA       -29.9130  -27.4550  -20.8010 C.3    13  HIS13       0.1621
     15  C        -29.3200  -27.5100  -19.3880 C.2    13  HIS13       0.2264
     16  O        -28.1070  -27.4320  -19.2420 O.2    13  HIS13      -0.2867
     17  CB       -30.2780  -26.0090  -21.1160 C.3    13  HIS13       0.0745
     18  CG       -30.4070  -25.7200  -22.5740 C.ar   13  HIS13       0.0817
     19  ND1      -30.2080  -24.4630  -23.0960 N.ar   13  HIS13      -0.2268
     20  CD2      -30.7000  -26.5230  -23.6220 C.ar   13  HIS13       0.1154
     21  CE1      -30.3840  -24.5000  -24.4030 C.ar   13  HIS13       0.1986
     22  NE2      -30.6870  -25.7390  -24.7480 N.ar   13  HIS13      -0.2212
     23  N        -26.5450  -25.9620  -35.4620 N.3    84  LEU84      -0.1245
     24  CA       -26.9710  -24.9320  -34.5030 C.3    84  LEU84       0.1561
     25  C        -26.6800  -23.5060  -34.9770 C.2    84  LEU84       0.2260
     26  O        -27.4880  -22.6050  -34.7440 O.2    84  LEU84      -0.2867
     27  CB       -26.4080  -25.1780  -33.0910 C.3    84  LEU84       0.0270
     28  CG       -27.0210  -26.3260  -32.2770 C.3    84  LEU84       0.0019
     29  CD1      -26.3510  -26.4620  -30.9340 C.3    84  LEU84       0.0001
     30  CD2      -28.5050  -26.1470  -32.0780 C.3    84  LEU84       0.0001
     31  N        -31.0400  -18.3350  -31.0170 N.3    91  ILE91      -0.1245
     32  CA       -30.2800  -18.6050  -29.8160 C.3    91  ILE91       0.1561
     33  C        -29.8690  -17.2690  -29.2110 C.2    91  ILE91       0.2260
     34  O        -29.9430  -17.0840  -28.0000 O.2    91  ILE91      -0.2867
     35  CB       -29.1010  -19.5520  -30.0740 C.3    91  ILE91       0.0252
     36  CG1      -29.6500  -20.8980  -30.5470 C.3    91  ILE91       0.0019
     37  CG2      -28.2750  -19.7470  -28.8010 C.3    91  ILE91       0.0019
     38  CD1      -28.6420  -21.8220  -31.2510 C.3    91  ILE91       0.0001
     39  N        -23.5680  -24.1560  -20.4640 N.3   116  GLU116     -0.1231
     40  CA       -24.0370  -25.1260  -21.4130 C.3   116  GLU116      0.1699
     41  C        -23.9540  -24.5270  -22.8190 C.2   116  GLU116      0.2592
     42  O        -24.0420  -23.2910  -22.9890 O.2   116  GLU116     -0.2718
     43  CB       -25.4490  -25.5670  -21.0630 C.3   116  GLU116      0.0402
     44  CG       -26.4470  -24.4270  -20.9320 C.3   116  GLU116      0.1161
     45  CD       -27.1520  -24.0540  -22.2360 C.2   116  GLU116      0.3649
     46  OE1      -26.8910  -24.6610  -23.3050 O.co2 116  GLU116     -0.2457
     47  OE2      -27.9930  -23.1360  -22.1760 O.co2 116  GLU116     -0.2457
     48  N        -23.8040  -25.4090  -23.8170 N.am  117  GLN117     -0.1966
     49  CA       -23.5520  -25.0540  -25.2280 C.3   117  GLN117      0.1733
     50  C        -24.3710  -23.8840  -25.7850 C.2   117  GLN117      0.2616
     51  O        -23.8470  -22.9980  -26.4540 O.2   117  GLN117     -0.2715
     52  CB       -23.7840  -26.2870  -26.0910 C.3   117  GLN117      0.0408
     53  CG       -23.2800  -26.2090  -27.5270 C.3   117  GLN117      0.0908
     54  CD       -23.3010  -27.5730  -28.2090 C.2   117  GLN117      0.2608
     55  OE1      -24.2970  -28.2780  -28.1530 O.2   117  GLN117     -0.2717
     56  NE2      -22.1890  -27.9510  -28.8460 N.am  117  GLN117     -0.0878
     57  N        -25.6660  -23.8740  -25.5370 N.am  118  GLY118     -0.1955
     58  CA       -26.4920  -22.8610  -26.1840 C.3   118  GLY118      0.1869
     59  C        -26.4930  -21.5290  -25.4680 C.2   118  GLY118      0.2309
     60  O        -27.3590  -20.6880  -25.7360 O.2   118  GLY118     -0.2863
     61  N        -24.7080  -31.2030  -24.3750 N.3   138  GLN138     -0.1245
     62  CA       -25.6920  -32.1960  -23.9430 C.3   138  GLN138      0.1566
     63  C        -25.9470  -33.3600  -24.9200 C.2   138  GLN138      0.2260
     64  O        -26.4420  -34.4060  -24.5020 O.2   138  GLN138     -0.2867
     65  CB       -27.0280  -31.5260  -23.6210 C.3   138  GLN138      0.0367
     66  CG       -27.8910  -31.2390  -24.8450 C.3   138  GLN138      0.0905
     67  CD       -28.9880  -30.2390  -24.5630 C.2   138  GLN138      0.2608
     68  OE1      -28.7450  -29.1650  -23.9980 O.2   138  GLN138     -0.2717
     69  NE2      -30.2050  -30.5750  -24.9690 N.am  138  GLN138     -0.0878
     70  N        -24.7540  -32.2780  -31.2180 N.3   141  TRP141     -0.1241
     71  CA       -24.5320  -30.9800  -31.8550 C.3   141  TRP141      0.1605
     72  C        -23.0730  -30.5600  -31.8080 C.2   141  TRP141      0.2264
     73  O        -22.4540  -30.5790  -30.7560 O.2   141  TRP141     -0.2867
     74  CB       -25.3750  -29.8930  -31.1890 C.3   141  TRP141      0.0550
     75  CG       -26.8540  -30.1430  -31.2000 C.ar  141  TRP141      0.0003
     76  CD1      -27.6670  -30.3510  -30.1080 C.ar  141  TRP141      0.0946
     77  CD2      -27.7060  -30.1880  -32.3450 C.ar  141  TRP141      0.0152
     78  NE1      -28.9720  -30.5240  -30.5140 N.ar  141  TRP141     -0.2442
     79  CE2      -29.0220  -30.4310  -31.8810 C.ar  141  TRP141      0.0810
     80  CE3      -27.4900  -30.0490  -33.7200 C.ar  141  TRP141      0.0012
     81  CZ2      -30.1130  -30.5470  -32.7500 C.ar  141  TRP141      0.0191
     82  CZ3      -28.5840  -30.1670  -34.5950 C.ar  141  TRP141      0.0001
     83  CH2      -29.8750  -30.4130  -34.1010 C.ar  141  TRP141      0.0015
     84  N        -40.8400  -32.1420  -33.8480 N.3   304  ASP304     -0.1239
     85  CA       -39.6670  -31.7590  -33.0580 C.3   304  ASP304      0.1674
     86  C        -38.5090  -31.4140  -33.9800 C.2   304  ASP304      0.2266
     87  O        -37.9190  -32.2870  -34.6070 O.2   304  ASP304     -0.2867
     88  CB       -39.2540  -32.8670  -32.0690 C.3   304  ASP304      0.1410
     89  CG       -37.9710  -32.5270  -31.2580 C.2   304  ASP304      0.3668
     90  OD1      -37.4160  -31.4150  -31.3690 O.co2 304  ASP304     -0.2456
     91  OD2      -37.5060  -33.3890  -30.4890 O.co2 304  ASP304     -0.2456
     92  N        -35.4790  -30.5100  -33.2120 N.3   306  PHE306     -0.1241
     93  CA       -34.1150  -30.6630  -32.6690 C.3   306  PHE306      0.1605
     94  C        -33.6460  -32.1020  -32.4710 C.2   306  PHE306      0.2264
     95  O        -32.7390  -32.3810  -31.6890 O.2   306  PHE306     -0.2867
     96  CB       -33.9270  -29.8060  -31.4150 C.3   306  PHE306      0.0534
     97  CG       -33.8300  -28.3400  -31.7130 C.ar  306  PHE306     -0.0203
     98  CD1      -32.5920  -27.7340  -31.8600 C.ar  306  PHE306     -0.0042
     99  CD2      -34.9850  -27.5750  -31.8880 C.ar  306  PHE306     -0.0042
    100  CE1      -32.4980  -26.3840  -32.1510 C.ar  306  PHE306     -0.0003
    101  CE2      -34.9040  -26.2260  -32.1770 C.ar  306  PHE306     -0.0003
    102  CZ       -33.6560  -25.6260  -32.3080 C.ar  306  PHE306     -0.0000
@<TRIPOS>BOND
     1    23    24    1
     2    25    26    2
     3    25    24    1
     4    87    86    2
     5    82    83   ar
     6    82    80   ar
     7    24    27    1
     8    83    81   ar
     9    86    85    1
    10    84    85    1
    11    80    77   ar
    12    92    93    1
    13    27    28    1
    14    85    88    1
    15    81    79   ar
    16    93    94    1
    17    93    96    1
    18    94    95    2
    19    77    79   ar
    20    77    75   ar
    21   102   101   ar
    22   102   100   ar
    23    28    30    1
    24    28    29    1
    25   101    99   ar
    26   100    98   ar
    27    88    89    1
    28    99    97   ar
    29    79    78   ar
    30    98    97   ar
    31    71    72    1
    32    71    70    1
    33    71    74    1
    34    72    73    2
    35    97    96    1
    36    90    89   ar
    37    89    91   ar
    38    38    36    1
    39    75    74    1
    40    75    76   ar
    41    31    32    1
    42    36    35    1
    43    78    76   ar
    44    35    32    1
    45    35    37    1
    46    32    33    1
    47    33    34    2
    48    56    54   am
    49    54    55    2
    50    54    53    1
    51    53    52    1
    52    51    50    2
    53    58    57    1
    54    58    59    1
    55    52    49    1
    56    50    57   am
    57    50    49    1
    58    60    59    2
    59    49    48    1
    60    69    67   am
    61    63    64    2
    62    63    62    1
    63    66    67    1
    64    66    65    1
    65    22    21   ar
    66    22    20   ar
    67    67    68    2
    68    21    19   ar
    69    12    10    1
    70    61    62    1
    71    62    65    1
    72    48    41   am
    73     8     7    2
    74     9    10    1
    75     9    11    1
    76     9     6    1
    77    20    18   ar
    78    46    45   ar
    79     5     6    1
    80     5     3   am
    81     2     3    1
    82     2     1    1
    83    19    18   ar
    84    42    41    2
    85     6     7    1
    86    41    40    1
    87     3     4    2
    88    18    17    1
    89    45    47   ar
    90    45    44    1
    91    40    43    1
    92    40    39    1
    93    17    14    1
    94    13    14    1
    95    43    44    1
    96    14    15    1
    97    15    16    2
