@<TRIPOS>MOLECULE
tmp/3d0rA00.pdb
 135 131 0 0 0
SMALL
GASTEIGER

@<TRIPOS>ATOM
      1  N         29.1710   25.5230   14.6400 N.3    11  GLY11      -0.1210
      2  CA        28.6090   25.8620   13.3360 C.3    11  GLY11       0.1956
      3  C         29.0840   24.8840   12.2920 C.2    11  GLY11       0.2611
      4  O         30.0430   24.1290   12.5160 O.2    11  GLY11      -0.2717
      5  N         28.4050   24.8920   11.1540 N.am   12  ILE12      -0.1979
      6  CA        28.6030   23.8440   10.1630 C.3    12  ILE12       0.1595
      7  C         29.9680   24.0010    9.4920 C.2    12  ILE12       0.2287
      8  O         30.2570   25.0490    8.9210 O.2    12  ILE12      -0.2864
      9  CB        27.5360   23.8870    9.0610 C.3    12  ILE12       0.0276
     10  CG1       26.1190   23.9040    9.6370 C.3    12  ILE12       0.0022
     11  CG2       27.6920   22.6820    8.1050 C.3    12  ILE12       0.0022
     12  CD1       25.8340   22.7890   10.6200 C.3    12  ILE12       0.0001
     13  N         32.9260   24.1380   10.7790 N.3    14  HIS14      -0.1241
     14  CA        33.9210   24.9650   11.4740 C.3    14  HIS14       0.1621
     15  C         35.1160   24.1550   11.9670 C.2    14  HIS14       0.2264
     16  O         36.2520   24.6050   11.8510 O.2    14  HIS14      -0.2867
     17  CB        33.3210   25.6880   12.6680 C.3    14  HIS14       0.0745
     18  CG        32.3910   26.7910   12.2920 C.ar   14  HIS14       0.0817
     19  ND1       31.8290   27.6300   13.2260 N.ar   14  HIS14      -0.2268
     20  CD2       31.9170   27.1890   11.0870 C.ar   14  HIS14       0.1154
     21  CE1       31.0500   28.5080   12.6110 C.ar   14  HIS14       0.1986
     22  NE2       31.0840   28.2590   11.3150 N.ar   14  HIS14      -0.2212
     23  N         19.9440   31.1800   19.0700 N.3    63  PHE63      -0.1241
     24  CA        19.2200   31.8680   18.0030 C.3    63  PHE63       0.1605
     25  C         17.9170   32.4750   18.4970 C.2    63  PHE63       0.2264
     26  O         17.5210   33.5640   18.0630 O.2    63  PHE63      -0.2867
     27  CB        18.9890   30.9680   16.7790 C.3    63  PHE63       0.0534
     28  CG        18.2260   31.6560   15.6670 C.ar   63  PHE63      -0.0203
     29  CD1       18.8690   32.5520   14.8120 C.ar   63  PHE63      -0.0042
     30  CD2       16.8630   31.4320   15.4900 C.ar   63  PHE63      -0.0042
     31  CE1       18.1740   33.2150   13.7870 C.ar   63  PHE63      -0.0003
     32  CE2       16.1590   32.0900   14.4660 C.ar   63  PHE63      -0.0003
     33  CZ        16.8250   32.9860   13.6150 C.ar   63  PHE63      -0.0000
     34  N         29.5570   37.5440    5.6610 N.3    85  LEU85      -0.1245
     35  CA        29.4490   37.1170    7.0500 C.3    85  LEU85       0.1561
     36  C         29.1970   38.3010    7.9770 C.2    85  LEU85       0.2260
     37  O         28.5070   38.1400    8.9810 O.2    85  LEU85      -0.2867
     38  CB        30.6960   36.3630    7.5050 C.3    85  LEU85       0.0270
     39  CG        30.9630   35.0380    6.7260 C.3    85  LEU85       0.0019
     40  CD1       32.2220   34.3730    7.2130 C.3    85  LEU85       0.0001
     41  CD2       29.7760   34.0660    6.8550 C.3    85  LEU85       0.0001
     42  N         25.7190   39.0090    9.3210 N.3    88  TRP88      -0.1241
     43  CA        25.2980   38.0970   10.3710 C.3    88  TRP88       0.1605
     44  C         26.0520   38.3040   11.6870 C.2    88  TRP88       0.2264
     45  O         26.0250   37.4270   12.5760 O.2    88  TRP88      -0.2867
     46  CB        25.5080   36.6580    9.9000 C.3    88  TRP88       0.0550
     47  CG        24.4410   36.2710    8.9080 C.ar   88  TRP88       0.0003
     48  CD1       24.2960   36.7270    7.6140 C.ar   88  TRP88       0.0946
     49  CD2       23.3550   35.3910    9.1500 C.ar   88  TRP88       0.0152
     50  NE1       23.1890   36.1650    7.0420 N.ar   88  TRP88      -0.2442
     51  CE2       22.5820   35.3440    7.9590 C.ar   88  TRP88       0.0810
     52  CE3       22.9500   34.6350   10.2540 C.ar   88  TRP88       0.0012
     53  CZ2       21.4450   34.5590    7.8410 C.ar   88  TRP88       0.0191
     54  CZ3       21.7970   33.8670   10.1410 C.ar   88  TRP88       0.0001
     55  CH2       21.0610   33.8350    8.9450 C.ar   88  TRP88       0.0015
     56  N         24.3740   37.5330   15.1400 N.3    91  GLN91      -0.1231
     57  CA        24.2080   36.1080   15.3320 C.3    91  GLN91       0.1698
     58  C         25.5370   35.4250   15.6450 C.2    91  GLN91       0.2592
     59  O         25.6140   34.6040   16.5490 O.2    91  GLN91      -0.2718
     60  CB        23.6340   35.4920   14.0600 C.3    91  GLN91       0.0381
     61  CG        23.5450   33.9850   14.1240 C.3    91  GLN91       0.0905
     62  CD        22.2750   33.5920   14.7900 C.2    91  GLN91       0.2608
     63  OE1       22.2530   33.3110   15.9840 O.2    91  GLN91      -0.2717
     64  NE2       21.1790   33.6290   14.0350 N.am   91  GLN91      -0.0878
     65  N         26.5840   35.7840   14.9140 N.am   92  ILE92      -0.1980
     66  CA        27.8910   35.1910   15.1380 C.3    92  ILE92       0.1595
     67  C         28.3810   35.5670   16.5510 C.2    92  ILE92       0.2287
     68  O         28.9500   34.7430   17.2840 O.2    92  ILE92      -0.2864
     69  CB        28.8990   35.5490   14.0180 C.3    92  ILE92       0.0276
     70  CG1       28.4240   34.9440   12.6670 C.3    92  ILE92       0.0022
     71  CG2       30.2880   34.9240   14.3640 C.3    92  ILE92       0.0022
     72  CD1       29.0550   35.5680   11.4020 C.3    92  ILE92       0.0001
     73  N         26.7240   33.3940   19.1380 N.3    95  VAL95      -0.1245
     74  CA        27.3570   32.0640   19.1360 C.3    95  VAL95       0.1561
     75  C         28.6800   32.1140   19.9320 C.2    95  VAL95       0.2260
     76  O         28.9910   31.2110   20.7080 O.2    95  VAL95      -0.2867
     77  CB        27.6240   31.5440   17.6900 C.3    95  VAL95       0.0252
     78  CG1       28.5740   30.3460   17.7110 C.3    95  VAL95       0.0019
     79  CG2       26.3060   31.1530   16.9670 C.3    95  VAL95       0.0019
     80  N         39.2030   29.1900   13.7710 N.3   118  GLU118     -0.1231
     81  CA        38.4160   29.2450   12.5330 C.3   118  GLU118      0.1699
     82  C         37.6960   30.6060   12.3880 C.2   118  GLU118      0.2592
     83  O         37.4080   31.2730   13.3710 O.2   118  GLU118     -0.2718
     84  CB        37.4620   28.0500   12.4160 C.3   118  GLU118      0.0402
     85  CG        36.4890   27.8520   13.5600 C.3   118  GLU118      0.1161
     86  CD        35.1900   28.6660   13.4090 C.2   118  GLU118      0.3649
     87  OE1       34.8840   29.1770   12.2950 O.co2 118  GLU118     -0.2457
     88  OE2       34.4820   28.7820   14.4300 O.co2 118  GLU118     -0.2457
     89  N         37.3870   30.9570   11.1470 N.am  119  GLN119     -0.1966
     90  CA        36.9090   32.2780   10.7220 C.3   119  GLN119      0.1733
     91  C         35.7550   32.8410   11.5470 C.2   119  GLN119      0.2616
     92  O         35.7170   34.0430   11.8380 O.2   119  GLN119     -0.2715
     93  CB        36.4630   32.1780    9.2670 C.3   119  GLN119      0.0408
     94  CG        36.0260   33.5390    8.6690 C.3   119  GLN119      0.0908
     95  CD        35.8060   33.4100    7.1920 C.2   119  GLN119      0.2608
     96  OE1       35.2660   32.3990    6.7470 O.2   119  GLN119     -0.2717
     97  NE2       36.2160   34.4280    6.4060 N.am  119  GLN119     -0.0878
     98  N         34.8110   31.9990   11.9220 N.am  120  GLY120     -0.1955
     99  CA        33.6630   32.4700   12.7130 C.3   120  GLY120      0.1869
    100  C         33.9200   32.6590   14.2100 C.2   120  GLY120      0.2309
    101  O         33.0360   33.1100   14.9440 O.2   120  GLY120     -0.2863
    102  N         37.2600   28.2170    5.9150 N.3   140  GLN140     -0.1245
    103  CA        36.7630   26.9320    5.4020 C.3   140  GLN140      0.1566
    104  C         36.2570   26.9700    3.9670 C.2   140  GLN140      0.2260
    105  O         36.0600   25.9080    3.3120 O.2   140  GLN140     -0.2867
    106  CB        35.6380   26.4030    6.3070 C.3   140  GLN140      0.0367
    107  CG        34.2820   27.1140    6.1750 C.3   140  GLN140      0.0905
    108  CD        33.3110   26.6580    7.2270 C.2   140  GLN140      0.2608
    109  OE1       33.5820   26.8190    8.3980 O.2   140  GLN140     -0.2717
    110  NE2       32.1640   26.0910    6.8180 N.am  140  GLN140     -0.0878
    111  N         34.0940   32.5790    1.7860 N.3   143  TRP143     -0.1241
    112  CA        33.7330   33.8040    2.5090 C.3   143  TRP143      0.1605
    113  C         34.9430   34.6670    2.7950 C.2   143  TRP143      0.2264
    114  O         35.9570   34.1650    3.2640 O.2   143  TRP143     -0.2867
    115  CB        33.0700   33.5210    3.8440 C.3   143  TRP143      0.0550
    116  CG        31.8510   32.6630    3.7700 C.ar  143  TRP143      0.0003
    117  CD1       31.7660   31.3350    4.1060 C.ar  143  TRP143      0.0946
    118  CD2       30.5370   33.0650    3.3800 C.ar  143  TRP143      0.0152
    119  NE1       30.4900   30.8810    3.9090 N.ar  143  TRP143     -0.2442
    120  CE2       29.7080   31.9180    3.4740 C.ar  143  TRP143      0.0810
    121  CE3       29.9790   34.2750    2.9360 C.ar  143  TRP143      0.0012
    122  CZ2       28.3550   31.9490    3.1510 C.ar  143  TRP143      0.0191
    123  CZ3       28.6230   34.3120    2.6210 C.ar  143  TRP143      0.0001
    124  CH2       27.8270   33.1470    2.7220 C.ar  143  TRP143      0.0015
    125  N         23.4730   29.7590    3.0920 N.3   313  PHE313     -0.1241
    126  CA        24.9110   30.0230    3.1340 C.3   313  PHE313      0.1605
    127  C         25.6850   29.4190    1.9910 C.2   313  PHE313      0.2264
    128  O         26.8030   28.9260    2.1700 O.2   313  PHE313     -0.2867
    129  CB        25.5140   29.6370    4.4790 C.3   313  PHE313      0.0534
    130  CG        24.9430   30.4070    5.6100 C.ar  313  PHE313     -0.0203
    131  CD1       25.4550   31.6510    5.9450 C.ar  313  PHE313     -0.0042
    132  CD2       23.8660   29.9080    6.3070 C.ar  313  PHE313     -0.0042
    133  CE1       24.9110   32.3880    6.9850 C.ar  313  PHE313     -0.0003
    134  CE2       23.3020   30.6310    7.3470 C.ar  313  PHE313     -0.0003
    135  CZ        23.8300   31.8760    7.6930 C.ar  313  PHE313     -0.0000
@<TRIPOS>BOND
     1   111   112    1
     2   127   128    2
     3   127   126    1
     4   112   113    1
     5   112   115    1
     6   123   124   ar
     7   123   121   ar
     8   124   122   ar
     9   113   114    2
    10   121   118   ar
    11   125   126    1
    12   126   129    1
    13   122   120   ar
    14   105   104    2
    15   118   120   ar
    16   118   116   ar
    17   120   119   ar
    18   116   115    1
    19   116   117   ar
    20   119   117   ar
    21   104   103    1
    22   129   130    1
    23   103   102    1
    24   103   106    1
    25   130   131   ar
    26   130   132   ar
    27    34    35    1
    28   131   133   ar
    29   107   106    1
    30   107   108    1
    31   132   134   ar
    32    97    95   am
    33    39    41    1
    34    39    40    1
    35    39    38    1
    36    96    95    2
    37   110   108   am
    38   133   135   ar
    39    50    48   ar
    40    50    51   ar
    41    35    38    1
    42    35    36    1
    43    95    94    1
    44   108   109    2
    45   134   135   ar
    46    48    47   ar
    47    53    51   ar
    48    53    55   ar
    49    51    49   ar
    50    36    37    2
    51    11     9    1
    52    94    93    1
    53    47    49   ar
    54    47    46    1
    55     8     7    2
    56    55    54   ar
    57     9    10    1
    58     9     6    1
    59    49    52   ar
    60    93    90    1
    61    42    43    1
    62     7     6    1
    63    10    12    1
    64    46    43    1
    65    54    52   ar
    66     6     5    1
    67    43    44    1
    68    90    89    1
    69    90    91    1
    70    13    14    1
    71    20    22   ar
    72    20    18   ar
    73    89    82   am
    74     5     3   am
    75    22    21   ar
    76    72    70    1
    77    14    15    1
    78    14    17    1
    79    91    92    2
    80    91    98   am
    81    44    45    2
    82    16    15    2
    83    98    99    1
    84     3     4    2
    85     3     2    1
    86    18    17    1
    87    18    19   ar
    88    87    86   ar
    89    82    81    1
    90    82    83    2
    91    84    81    1
    92    84    85    1
    93    81    80    1
    94    21    19   ar
    95    70    69    1
    96    99   100    1
    97     2     1    1
    98    86    85    1
    99    86    88   ar
   100    33    31   ar
   101    33    32   ar
   102    31    29   ar
   103    69    71    1
   104    69    66    1
   105    64    62   am
   106    60    61    1
   107    60    57    1
   108    61    62    1
   109   100   101    2
   110    32    30   ar
   111    62    63    2
   112    29    28   ar
   113    65    66    1
   114    65    58   am
   115    66    67    1
   116    56    57    1
   117    57    58    1
   118    30    28   ar
   119    58    59    2
   120    28    27    1
   121    67    68    2
   122    27    24    1
   123    79    77    1
   124    77    78    1
   125    77    74    1
   126    24    25    1
   127    24    23    1
   128    26    25    2
   129    74    73    1
   130    74    75    1
   131    75    76    2
