@<TRIPOS>MOLECULE
tmp/3d0yB00.pdb
 84 84 0 0 0
SMALL
GASTEIGER

@<TRIPOS>ATOM
      1  N          0.1030    4.6180  -11.9080 N.3    42  SER42      -0.1202
      2  CA        -0.3210    5.6770  -12.8130 C.3    42  SER42       0.2020
      3  C         -0.5860    7.0200  -12.0800 C.2    42  SER42       0.2619
      4  O         -0.5510    8.1060  -12.7010 O.2    42  SER42      -0.2717
      5  CB        -1.5540    5.2530  -13.6270 C.3    42  SER42       0.2103
      6  OG        -2.7120    5.1940  -12.8200 O.3    42  SER42      -0.2182
      7  N         -0.7860    6.9600  -10.7610 N.am   43  HIS43      -0.1961
      8  CA        -1.0410    8.1870  -10.0000 C.3    43  HIS43       0.1787
      9  C          0.1480    8.7490   -9.2670 C.2    43  HIS43       0.2620
     10  O          0.0550    9.8170   -8.7010 O.2    43  HIS43      -0.2715
     11  CB        -2.1730    7.9510   -9.0420 C.3    43  HIS43       0.0785
     12  CG        -3.3750    7.3810   -9.7060 C.ar   43  HIS43       0.0821
     13  ND1       -3.7870    6.0820   -9.5050 N.ar   43  HIS43      -0.2267
     14  CD2       -4.2330    7.9180  -10.6070 C.ar   43  HIS43       0.1154
     15  CE1       -4.8800    5.8570  -10.2160 C.ar   43  HIS43       0.1986
     16  NE2       -5.1710    6.9550  -10.8930 N.ar   43  HIS43      -0.2212
     17  N          1.2460    8.0170   -9.2910 N.am   44  PHE44      -0.1960
     18  CA         2.4690    8.4000   -8.5790 C.3    44  PHE44       0.1771
     19  C          3.6260    8.6480   -9.5450 C.2    44  PHE44       0.2619
     20  O          4.5040    9.4520   -9.2570 O.2    44  PHE44      -0.2715
     21  CB         2.9330    7.2260   -7.6970 C.3    44  PHE44       0.0574
     22  CG         2.1010    6.9700   -6.4280 C.ar   44  PHE44      -0.0200
     23  CD1        0.9110    7.6380   -6.1600 C.ar   44  PHE44      -0.0042
     24  CD2        2.5090    6.0000   -5.5340 C.ar   44  PHE44      -0.0042
     25  CE1        0.1760    7.3680   -4.9960 C.ar   44  PHE44      -0.0003
     26  CE2        1.7500    5.7060   -4.3880 C.ar   44  PHE44      -0.0003
     27  CZ         0.6040    6.4090   -4.1180 C.ar   44  PHE44      -0.0000
     28  N          3.6940    7.8860  -10.6250 N.am   45  LEU45      -0.1963
     29  CA         4.7950    8.0360  -11.6000 C.3    45  LEU45       0.1728
     30  C          4.2620    8.3980  -12.9870 C.2    45  LEU45       0.2616
     31  O          3.1810    7.9730  -13.3940 O.2    45  LEU45      -0.2715
     32  CB         5.6530    6.7830  -11.6730 C.3    45  LEU45       0.0311
     33  CG         6.3530    6.3130  -10.3850 C.3    45  LEU45       0.0022
     34  CD1        7.0780    5.0420  -10.6950 C.3    45  LEU45       0.0001
     35  CD2        7.3450    7.3440   -9.8660 C.3    45  LEU45       0.0001
     36  N          5.0290    9.2080  -13.7040 N.am   46  GLU46      -0.1977
     37  CA         4.7120    9.5120  -15.0840 C.3    46  GLU46       0.1602
     38  C          4.6790    8.2840  -15.9530 C.2    46  GLU46       0.2287
     39  O          5.4890    7.3640  -15.8060 O.2    46  GLU46      -0.2864
     40  CB         5.7110   10.4990  -15.6570 C.3    46  GLU46       0.0415
     41  CG         5.9440   11.6750  -14.7280 C.3    46  GLU46       0.1163
     42  CD         4.6700   12.4570  -14.4320 C.2    46  GLU46       0.3649
     43  OE1        3.9240   12.7470  -15.3930 O.co2  46  GLU46      -0.2457
     44  OE2        4.4100   12.7810  -13.2510 O.co2  46  GLU46      -0.2457
     45  N          9.7440    4.5660   -4.4030 N.3    81  VAL81      -0.1245
     46  CA         8.4900    5.2070   -4.7360 C.3    81  VAL81       0.1561
     47  C          7.7010    5.6390   -3.4660 C.2    81  VAL81       0.2260
     48  O          7.1990    6.7300   -3.3730 O.2    81  VAL81      -0.2867
     49  CB         7.6600    4.3060   -5.6060 C.3    81  VAL81       0.0252
     50  CG1        6.3650    4.9520   -5.9400 C.3    81  VAL81       0.0019
     51  CG2        8.3950    3.9860   -6.8870 C.3    81  VAL81       0.0019
     52  N          9.3470    8.6760   -1.9510 N.3    84  ALA84      -0.1231
     53  CA         8.9940    9.8160   -2.7680 C.3    84  ALA84       0.1694
     54  C          7.5640   10.3020   -2.4360 C.2    84  ALA84       0.2592
     55  O          7.3520   11.5100   -2.2550 O.2    84  ALA84      -0.2718
     56  CB         9.1030    9.4450   -4.2610 C.3    84  ALA84       0.0304
     57  N          6.5940    9.3900   -2.3720 N.am   85  CYS85      -0.1970
     58  CA         5.2110    9.7310   -1.9580 C.3    85  CYS85       0.1712
     59  C          5.1500   10.3800   -0.5590 C.2    85  CYS85       0.2296
     60  O          4.4220   11.3560   -0.3120 O.2    85  CYS85      -0.2864
     61  CB         4.3040    8.4890   -2.0610 C.3    85  CYS85       0.0983
     62  SG         2.5750    8.7420   -1.6290 S.3    85  CYS85      -0.0798
     63  N          6.5350   13.9000   -0.8380 N.3    88  PHE88      -0.1227
     64  CA         5.6310   14.6940   -1.6470 C.3    88  PHE88       0.1736
     65  C          4.5400   15.3400   -0.7940 C.2    88  PHE88       0.2595
     66  O          4.2150   16.5180   -0.9510 O.2    88  PHE88      -0.2718
     67  CB         5.0040   13.8050   -2.7430 C.3    88  PHE88       0.0547
     68  CG         3.8180   14.4330   -3.4140 C.ar   88  PHE88      -0.0202
     69  CD1        3.9780   15.2680   -4.5040 C.ar   88  PHE88      -0.0042
     70  CD2        2.5330   14.2150   -2.9250 C.ar   88  PHE88      -0.0042
     71  CE1        2.8680   15.8740   -5.0970 C.ar   88  PHE88      -0.0003
     72  CE2        1.4100   14.8110   -3.5170 C.ar   88  PHE88      -0.0003
     73  CZ         1.5800   15.6390   -4.6040 C.ar   88  PHE88      -0.0000
     74  N          3.9850   14.5550    0.1250 N.am   89  PHE89      -0.1976
     75  CA         2.8620   15.0130    0.9470 C.3    89  PHE89       0.1639
     76  C          3.3140   16.0100    2.0150 C.2    89  PHE89       0.2290
     77  O          2.5020   16.7810    2.5220 O.2    89  PHE89      -0.2864
     78  CB         2.1770   13.7960    1.5970 C.3    89  PHE89       0.0560
     79  CG         1.3500   12.9470    0.6320 C.ar   89  PHE89      -0.0200
     80  CD1        1.8290   12.5990   -0.6240 C.ar   89  PHE89      -0.0042
     81  CD2        0.0980   12.4830    1.0030 C.ar   89  PHE89      -0.0042
     82  CE1        1.0850   11.8280   -1.4830 C.ar   89  PHE89      -0.0003
     83  CE2       -0.6550   11.7040    0.1410 C.ar   89  PHE89      -0.0003
     84  CZ        -0.1590   11.3740   -1.1050 C.ar   89  PHE89      -0.0000
@<TRIPOS>BOND
     1    38    39    2
     2    38    37    1
     3    40    37    1
     4    40    41    1
     5    43    42   ar
     6    37    36    1
     7    41    42    1
     8    42    44   ar
     9    36    30   am
    10     5     6    1
    11     5     2    1
    12    31    30    2
    13    30    29    1
    14     2     3    1
    15     2     1    1
    16     4     3    2
    17     3     7   am
    18    32    29    1
    19    32    33    1
    20    29    28    1
    21    16    14   ar
    22    16    15   ar
    23     7     8    1
    24    34    33    1
    25    28    19   am
    26    14    12   ar
    27    33    35    1
    28    15    13   ar
    29     8     9    1
    30     8    11    1
    31    12    13   ar
    32    12    11    1
    33    19    20    2
    34    19    18    1
    35    17     9   am
    36    17    18    1
    37     9    10    2
    38    18    21    1
    39    21    22    1
    40    51    49    1
    41    22    23   ar
    42    22    24   ar
    43    23    25   ar
    44    50    49    1
    45    49    46    1
    46    24    26   ar
    47    71    73   ar
    48    71    69   ar
    49    25    27   ar
    50    46    45    1
    51    46    47    1
    52    73    72   ar
    53    69    68   ar
    54    26    27   ar
    55    56    53    1
    56    72    70   ar
    57    47    48    2
    58    68    70   ar
    59    68    67    1
    60    53    54    1
    61    53    52    1
    62    67    64    1
    63    54    57   am
    64    54    55    2
    65    57    58    1
    66    61    58    1
    67    61    62    1
    68    58    59    1
    69    64    63    1
    70    64    65    1
    71    82    84   ar
    72    82    80   ar
    73    84    83   ar
    74    66    65    2
    75    65    74   am
    76    80    79   ar
    77    59    60    2
    78    74    75    1
    79    83    81   ar
    80    79    81   ar
    81    79    78    1
    82    75    78    1
    83    75    76    1
    84    76    77    2
