@<TRIPOS>MOLECULE
tmp/3d15A00.pdb
 204 186 0 0 0
SMALL
GASTEIGER

@<TRIPOS>ATOM
      1  N         -0.4120   28.3600    3.1620 N.3    14  LEU14      -0.1231
      2  CA         0.4070   29.5220    3.4070 C.3    14  LEU14       0.1693
      3  C          1.6810   29.4510    2.5550 C.2    14  LEU14       0.2592
      4  O          2.2210   30.4750    2.1310 O.2    14  LEU14      -0.2718
      5  CB         0.7470   29.6070    4.9020 C.3    14  LEU14       0.0284
      6  CG        -0.3660   30.1130    5.8380 C.3    14  LEU14       0.0019
      7  CD1       -0.0060   29.9260    7.3110 C.3    14  LEU14       0.0001
      8  CD2       -0.6990   31.5870    5.5590 C.3    14  LEU14       0.0001
      9  N          2.1440   28.2280    2.3140 N.am   15  GLY15      -0.1957
     10  CA         3.3380   27.9580    1.5210 C.3    15  GLY15       0.1869
     11  C          3.4710   26.4640    1.2920 C.2    15  GLY15       0.2309
     12  O          2.7780   25.6680    1.9290 O.2    15  GLY15      -0.2863
     13  N          8.7900   18.7750    1.1260 N.3    19  PHE19      -0.1241
     14  CA         8.7280   18.0900    2.4150 C.3    19  PHE19       0.1605
     15  C          7.2970   18.0950    2.9550 C.2    19  PHE19       0.2264
     16  O          6.8740   17.1500    3.6330 O.2    19  PHE19      -0.2867
     17  CB         9.7050   18.6980    3.4250 C.3    19  PHE19       0.0534
     18  CG        11.0460   18.0090    3.4630 C.ar   19  PHE19      -0.0203
     19  CD1       12.2120   18.7060    3.1610 C.ar   19  PHE19      -0.0042
     20  CD2       11.1430   16.6600    3.8010 C.ar   19  PHE19      -0.0042
     21  CE1       13.4590   18.0710    3.1960 C.ar   19  PHE19      -0.0003
     22  CE2       12.3820   16.0150    3.8370 C.ar   19  PHE19      -0.0003
     23  CZ        13.5420   16.7230    3.5350 C.ar   19  PHE19      -0.0000
     24  N          2.4110   24.1730    4.2440 N.3    22  VAL22      -0.1245
     25  CA         2.0210   24.9290    5.4390 C.3    22  VAL22       0.1561
     26  C          0.6030   25.4520    5.2240 C.2    22  VAL22       0.2260
     27  O          0.3080   26.0260    4.1830 O.2    22  VAL22      -0.2867
     28  CB         2.9640   26.1330    5.7160 C.3    22  VAL22       0.0252
     29  CG1        2.5610   26.8350    7.0090 C.3    22  VAL22       0.0019
     30  CG2        4.4230   25.6790    5.7740 C.3    22  VAL22       0.0019
     31  N         -0.1600   28.4200   12.3340 N.3    35  ALA35      -0.1245
     32  CA         0.1820   27.6730   11.1140 C.3    35  ALA35       0.1562
     33  C          0.4550   26.1910   11.3980 C.2    35  ALA35       0.2260
     34  O          1.0760   25.8410   12.3950 O.2    35  ALA35      -0.2867
     35  CB         1.3720   28.3050   10.4160 C.3    35  ALA35       0.0290
     36  N          2.3270   22.9970    9.6470 N.3    37  LYS37      -0.1245
     37  CA         3.0800   22.3570    8.5660 C.3    37  LYS37       0.1561
     38  C          2.9150   20.8400    8.6250 C.2    37  LYS37       0.2260
     39  O          3.0770   20.2150    9.6810 O.2    37  LYS37      -0.2867
     40  CB         4.5510   22.7690    8.5530 C.3    37  LYS37       0.0271
     41  CG         5.2370   22.4410    7.2350 C.3    37  LYS37       0.0035
     42  CD         6.7180   22.7400    7.2880 C.3    37  LYS37       0.0206
     43  CE         7.3770   22.6290    5.9150 C.3    37  LYS37       0.1093
     44  NZ         8.7940   23.1280    5.9530 N.3    37  LYS37      -0.1314
     45  N          4.1380   17.3780    7.4310 N.3    39  LEU39      -0.1245
     46  CA         5.2900   16.6500    6.9020 C.3    39  LEU39       0.1561
     47  C          4.9580   15.1780    6.7910 C.2    39  LEU39       0.2260
     48  O          4.3880   14.6050    7.7140 O.2    39  LEU39      -0.2867
     49  CB         6.4940   16.8200    7.8270 C.3    39  LEU39       0.0270
     50  CG         6.9210   18.2100    8.3070 C.3    39  LEU39       0.0019
     51  CD1        7.8720   18.0770    9.4940 C.3    39  LEU39       0.0001
     52  CD2        7.5640   19.0110    7.1810 C.3    39  LEU39       0.0001
     53  N         10.4740   11.8720    5.2080 N.3    44  LEU44      -0.1245
     54  CA        11.4630   12.1680    6.2480 C.3    44  LEU44       0.1561
     55  C         12.4320   11.0080    6.4680 C.2    44  LEU44       0.2260
     56  O         13.6460   11.2190    6.5510 O.2    44  LEU44      -0.2867
     57  CB        10.7830   12.5410    7.5780 C.3    44  LEU44       0.0270
     58  CG         9.9220   13.8100    7.7190 C.3    44  LEU44       0.0019
     59  CD1        9.0480   13.7290    8.9660 C.3    44  LEU44       0.0001
     60  CD2       10.7570   15.0930    7.7370 C.3    44  LEU44       0.0001
     61  N         16.2380   12.4150    7.9020 N.3    49  VAL49      -0.1245
     62  CA        16.2470   13.7470    8.5270 C.3    49  VAL49       0.1561
     63  C         15.4260   13.7870    9.8210 C.2    49  VAL49       0.2260
     64  O         15.3420   14.8330   10.4810 O.2    49  VAL49      -0.2867
     65  CB        15.7730   14.8870    7.5580 C.3    49  VAL49       0.0252
     66  CG1       16.7750   15.0990    6.4200 C.3    49  VAL49       0.0019
     67  CG2       14.3590   14.6250    7.0250 C.3    49  VAL49       0.0019
     68  N         17.2030   15.4260   12.6930 N.3    52  GLN52      -0.1231
     69  CA        17.2950   16.8870   12.5860 C.3    52  GLN52       0.1698
     70  C         15.9630   17.5540   12.9810 C.2    52  GLN52       0.2592
     71  O         15.9520   18.6260   13.5790 O.2    52  GLN52      -0.2718
     72  CB        17.7180   17.3040   11.1690 C.3    52  GLN52       0.0381
     73  CG        19.0170   16.6470   10.6700 C.3    52  GLN52       0.0905
     74  CD        19.2920   16.8890    9.1870 C.2    52  GLN52       0.2608
     75  OE1       19.8990   16.0490    8.5030 O.2    52  GLN52      -0.2717
     76  NE2       18.8480   18.0380    8.6800 N.am   52  GLN52      -0.0878
     77  N         14.8520   16.8990   12.6520 N.am   53  LEU53      -0.1980
     78  CA        13.5310   17.3520   13.0440 C.3    53  LEU53       0.1596
     79  C         13.3380   17.2870   14.5580 C.2    53  LEU53       0.2287
     80  O         12.8250   18.2360   15.1610 O.2    53  LEU53      -0.2864
     81  CB        12.4420   16.5470   12.3240 C.3    53  LEU53       0.0297
     82  CG        10.9780   16.9100   12.6320 C.3    53  LEU53       0.0022
     83  CD1       10.6630   18.3710   12.2810 C.3    53  LEU53       0.0001
     84  CD2       10.0230   15.9740   11.9210 C.3    53  LEU53       0.0001
     85  N         15.2880   20.0140   16.1270 N.3    56  GLU56      -0.1245
     86  CA        14.6530   21.3150   15.9020 C.3    56  GLU56       0.1567
     87  C         13.6090   21.5940   16.9740 C.2    56  GLU56       0.2260
     88  O         13.6730   22.6200   17.6420 O.2    56  GLU56      -0.2867
     89  CB        14.0010   21.3960   14.5200 C.3    56  GLU56       0.0388
     90  CG        13.2300   22.7090   14.3040 C.3    56  GLU56       0.1160
     91  CD        12.5070   22.7730   12.9770 C.2    56  GLU56       0.3649
     92  OE1       12.4410   21.7500   12.2600 O.co2  56  GLU56      -0.2457
     93  OE2       11.9920   23.8570   12.6560 O.co2  56  GLU56      -0.2457
     94  N         13.7660   24.4290   19.7530 N.3    60  GLN60      -0.1245
     95  CA        12.6770   25.4130   19.7950 C.3    60  GLN60       0.1566
     96  C         11.8390   25.4070   21.0900 C.2    60  GLN60       0.2260
     97  O         10.9410   26.2440   21.2560 O.2    60  GLN60      -0.2867
     98  CB        11.7800   25.2540   18.5670 C.3    60  GLN60       0.0367
     99  CG        12.3850   25.8040   17.2790 C.3    60  GLN60       0.0905
    100  CD        12.1430   27.2980   17.1030 C.2    60  GLN60       0.2608
    101  OE1       11.3450   27.7150   16.2570 O.2    60  GLN60      -0.2717
    102  NE2       12.8190   28.1060   17.9070 N.am   60  GLN60      -0.0878
    103  N         10.3680   32.9790   14.9920 N.3    69  LEU69      -0.1245
    104  CA         9.0570   32.3420   14.9340 C.3    69  LEU69       0.1561
    105  C          8.9550   31.1460   15.9100 C.2    69  LEU69       0.2260
    106  O          9.8880   30.3460   16.0240 O.2    69  LEU69      -0.2867
    107  CB         8.7420   31.9170   13.4940 C.3    69  LEU69       0.0270
    108  CG         7.2910   31.5510   13.1880 C.3    69  LEU69       0.0019
    109  CD1        6.4950   32.8210   12.8450 C.3    69  LEU69       0.0001
    110  CD2        7.2010   30.4860   12.0730 C.3    69  LEU69       0.0001
    111  N          7.8280   27.6040   17.4970 N.3    71  LEU71      -0.1245
    112  CA         7.3550   26.2490   17.2630 C.3    71  LEU71       0.1561
    113  C          6.6950   25.8620   18.5750 C.2    71  LEU71       0.2260
    114  O          7.3790   25.6290   19.5700 O.2    71  LEU71      -0.2867
    115  CB         8.5240   25.3050   16.9300 C.3    71  LEU71       0.0270
    116  CG         8.3860   24.1380   15.9280 C.3    71  LEU71       0.0019
    117  CD1        9.6280   23.2480   15.9670 C.3    71  LEU71       0.0001
    118  CD2        7.1320   23.2950   16.1260 C.3    71  LEU71       0.0001
    119  N          3.5880   20.1020   12.5010 N.3    83  LEU83      -0.1245
    120  CA         4.2530   21.1450   13.2850 C.3    83  LEU83       0.1561
    121  C          3.2850   22.2880   13.6020 C.2    83  LEU83       0.2260
    122  O          2.5980   22.7850   12.7110 O.2    83  LEU83      -0.2867
    123  CB         5.4570   21.6890   12.5190 C.3    83  LEU83       0.0270
    124  CG         6.4960   20.7090   11.9660 C.3    83  LEU83       0.0019
    125  CD1        7.6060   21.4980   11.2650 C.3    83  LEU83       0.0001
    126  CD2        7.0680   19.8490   13.0890 C.3    83  LEU83       0.0001
    127  N          2.8960   25.9500   14.5290 N.3    85  LEU85      -0.1231
    128  CA         3.7380   27.1320   14.4380 C.3    85  LEU85       0.1693
    129  C          2.9840   28.4290   14.6710 C.2    85  LEU85       0.2592
    130  O          1.7640   28.4880   14.5260 O.2    85  LEU85      -0.2718
    131  CB         4.4270   27.1800   13.0660 C.3    85  LEU85       0.0284
    132  CG         5.4460   26.0780   12.7650 C.3    85  LEU85       0.0019
    133  CD1        5.5220   25.8560   11.2700 C.3    85  LEU85       0.0001
    134  CD2        6.8090   26.4140   13.3510 C.3    85  LEU85       0.0001
    135  N          3.7360   29.4600   15.0330 N.am   86  GLU86      -0.1966
    136  CA         3.2610   30.8240   14.9990 C.3    86  GLU86       0.1733
    137  C          2.9820   31.1970   13.5600 C.2    86  GLU86       0.2616
    138  O          3.7830   30.9100   12.6630 O.2    86  GLU86      -0.2715
    139  CB         4.3160   31.7610   15.5740 C.3    86  GLU86       0.0429
    140  CG         3.9050   33.2220   15.6350 C.3    86  GLU86       0.1163
    141  CD         4.9910   34.1050   16.1770 C.2    86  GLU86       0.3649
    142  OE1        4.8420   35.3440   16.0690 O.co2  86  GLU86      -0.2457
    143  OE2        5.9920   33.5710   16.7120 O.co2  86  GLU86      -0.2457
    144  N          1.8220   31.8070   13.3490 N.am   87  TYR87      -0.1960
    145  CA         1.4390   32.3460   12.0470 C.3    87  TYR87       0.1771
    146  C          2.1190   33.7000   11.8810 C.2    87  TYR87       0.2619
    147  O          2.1420   34.5120   12.8150 O.2    87  TYR87      -0.2715
    148  CB        -0.0940   32.4460   11.9660 C.3    87  TYR87       0.0574
    149  CG        -0.6860   33.2550   10.8230 C.ar   87  TYR87      -0.0198
    150  CD1       -1.6420   34.2510   11.0880 C.ar   87  TYR87      -0.0009
    151  CD2       -0.3350   33.0110    9.4830 C.ar   87  TYR87      -0.0009
    152  CE1       -2.2140   34.9930   10.0710 C.ar   87  TYR87       0.0417
    153  CE2       -0.9100   33.7660    8.4390 C.ar   87  TYR87       0.0417
    154  CZ        -1.8460   34.7560    8.7510 C.ar   87  TYR87       0.1957
    155  OH        -2.4460   35.5050    7.7650 O.3    87  TYR87      -0.2866
    156  N          2.7170   33.9000   10.7100 N.am   88  ALA88      -0.1977
    157  CA         3.3340   35.1700   10.3280 C.3    88  ALA88       0.1597
    158  C          2.4170   35.8530    9.3060 C.2    88  ALA88       0.2287
    159  O          2.4190   35.4710    8.1280 O.2    88  ALA88      -0.2864
    160  CB         4.6980   34.9230    9.7300 C.3    88  ALA88       0.0319
    161  N          3.5740   37.2980    5.7880 N.3    91  GLY91      -0.1210
    162  CA         4.2120   36.3610    4.8740 C.3    91  GLY91       0.1956
    163  C          5.7230   36.2760    4.9800 C.2    91  GLY91       0.2612
    164  O          6.3240   36.5380    6.0390 O.2    91  GLY91      -0.2717
    165  N          6.3320   35.8760    3.8700 N.am   92  THR92      -0.1952
    166  CA         7.7710   35.7450    3.7680 C.3    92  THR92       0.1897
    167  C          8.4170   37.0000    3.2060 C.2    92  THR92       0.2313
    168  O          7.8330   37.6980    2.3750 O.2    92  THR92      -0.2863
    169  CB         8.1690   34.5680    2.8320 C.3    92  THR92       0.1794
    170  OG1        7.6490   34.8060    1.5210 O.3    92  THR92      -0.2208
    171  CG2        7.6370   33.2560    3.3370 C.3    92  THR92       0.0378
    172  N         13.2070   31.7580    4.6620 N.3   136  ASN136     -0.1240
    173  CA        13.1170   31.4120    6.0860 C.3   136  ASN136      0.1653
    174  C         12.9930   32.6350    6.9720 C.2   136  ASN136      0.2266
    175  O         13.1770   32.5760    8.1870 O.2   136  ASN136     -0.2867
    176  CB        14.3180   30.5760    6.5190 C.3   136  ASN136      0.1155
    177  CG        14.3090   29.2020    5.9050 C.2   136  ASN136      0.2627
    178  OD1       15.3590   28.5970    5.6810 O.2   136  ASN136     -0.2716
    179  ND2       13.1250   28.7010    5.6180 N.am  136  ASN136     -0.0877
    180  N         10.2400   35.5390    7.8280 N.3   138  LEU138     -0.1245
    181  CA         8.8030   35.7520    7.7690 C.3   138  LEU138      0.1561
    182  C          8.4830   37.0920    8.4290 C.2   138  LEU138      0.2260
    183  O          9.3370   37.6730    9.1010 O.2   138  LEU138     -0.2867
    184  CB         8.0460   34.5960    8.4570 C.3   138  LEU138      0.0270
    185  CG         8.2880   33.1170    8.0970 C.3   138  LEU138      0.0019
    186  CD1        7.1930   32.2790    8.6530 C.3   138  LEU138      0.0001
    187  CD2        8.4120   32.8430    6.6260 C.3   138  LEU138      0.0001
    188  N         12.8270   31.6950   10.9520 N.3   148  ALA148     -0.1231
    189  CA        12.0680   30.4670   11.0310 C.3   148  ALA148      0.1694
    190  C         12.8930   29.2930   10.4740 C.2   148  ALA148      0.2592
    191  O         13.9760   29.4930    9.9050 O.2   148  ALA148     -0.2718
    192  CB        10.7690   30.6210   10.2600 C.3   148  ALA148      0.0304
    193  N         12.3620   28.0840   10.6680 N.am  149  ASP149     -0.1974
    194  CA        12.9280   26.8210   10.1810 C.3   149  ASP149      0.1709
    195  C         14.3060   26.4780   10.7560 C.2   149  ASP149      0.2293
    196  O         15.3400   26.7130   10.1190 O.2   149  ASP149     -0.2864
    197  CB        12.9250   26.7650    8.6410 C.3   149  ASP149      0.1436
    198  CG        13.1070   25.3450    8.1020 C.2   149  ASP149      0.3671
    199  OD1       12.6000   25.0690    6.9940 O.co2 149  ASP149     -0.2456
    200  OD2       13.7510   24.5040    8.7800 O.co2 149  ASP149     -0.2456
    201  N         15.4700   23.4630   11.2480 N.3   151  GLY151     -0.1225
    202  CA        15.7470   22.0720   10.8930 C.3   151  GLY151      0.1811
    203  C         17.2010   21.7540   10.5860 C.2   151  GLY151      0.2280
    204  O         17.6660   20.6480   10.8770 O.2   151  GLY151     -0.2866
@<TRIPOS>BOND
     1    13    14    1
     2    11    10    1
     3    11    12    2
     4   170   169    1
     5    10     9    1
     6     4     3    2
     7     9     3   am
     8   168   167    2
     9    14    15    1
    10    14    17    1
    11     3     2    1
    12   169   171    1
    13   169   166    1
    14    15    16    2
    15    19    21   ar
    16    19    18   ar
    17     1     2    1
    18    21    23   ar
    19   167   166    1
    20     2     5    1
    21    17    18    1
    22    18    20   ar
    23    23    22   ar
    24   166   165    1
    25    20    22   ar
    26   165   163   am
    27    27    26    2
    28    24    25    1
    29   172   173    1
    30   162   163    1
    31   162   161    1
    32     5     6    1
    33   163   164    2
    34    53    54    1
    35    26    25    1
    36    25    28    1
    37     8     6    1
    38   179   177   am
    39   178   177    2
    40    28    30    1
    41    28    29    1
    42     6     7    1
    43   177   176    1
    44    43    44    1
    45    43    42    1
    46   173   176    1
    47   173   174    1
    48    54    55    1
    49    54    57    1
    50    66    65    1
    51    55    56    2
    52   187   185    1
    53    47    46    1
    54    47    48    2
    55    46    45    1
    56    46    49    1
    57   174   175    2
    58   199   198   ar
    59    67    65    1
    60    52    50    1
    61    41    42    1
    62    41    40    1
    63    65    62    1
    64    57    58    1
    65    58    60    1
    66    58    59    1
    67   155   154    1
    68   181   180    1
    69   181   182    1
    70   181   184    1
    71    49    50    1
    72    61    62    1
    73   185   184    1
    74   185   186    1
    75   198   197    1
    76   198   200   ar
    77   159   158    2
    78    50    51    1
    79   182   183    2
    80   153   154   ar
    81   153   151   ar
    82    75    74    2
    83    62    63    1
    84    40    37    1
    85    37    38    1
    86    37    36    1
    87    38    39    2
    88   197   194    1
    89    76    74   am
    90   154   152   ar
    91    74    73    1
    92   158   157    1
    93   151   149   ar
    94   160   157    1
    95    63    64    2
    96   191   190    2
    97   152   150   ar
    98   196   195    2
    99   194   193    1
   100   194   195    1
   101   192   189    1
   102   157   156    1
   103    35    32    1
   104   190   193   am
   105   190   189    1
   106   203   204    2
   107   203   202    1
   108    73    72    1
   109   156   146   am
   110   149   150   ar
   111   149   148    1
   112   202   201    1
   113   188   189    1
   114    32    33    1
   115    32    31    1
   116    72    69    1
   117   125   124    1
   118   133   132    1
   119    33    34    2
   120   146   145    1
   121   146   147    2
   122    84    82    1
   123   124   123    1
   124   124   126    1
   125   148   145    1
   126   145   144    1
   127   110   108    1
   128    92    91   ar
   129    83    82    1
   130    81    82    1
   131    81    78    1
   132   119   120    1
   133   123   120    1
   134    69    68    1
   135    69    70    1
   136    77    70   am
   137    77    78    1
   138    93    91   ar
   139   138   137    2
   140   122   121    2
   141   132   131    1
   142   132   134    1
   143   109   108    1
   144    91    90    1
   145    70    71    2
   146    78    79    1
   147   131   128    1
   148   108   107    1
   149   120   121    1
   150   144   137   am
   151   107   104    1
   152   137   136    1
   153    90    89    1
   154   128   127    1
   155   128   129    1
   156    89    86    1
   157   130   129    2
   158    79    80    2
   159   129   135   am
   160   104   103    1
   161   104   105    1
   162   136   135    1
   163   136   139    1
   164   139   140    1
   165   140   141    1
   166    86    85    1
   167    86    87    1
   168   105   106    2
   169   116   117    1
   170   116   118    1
   171   116   115    1
   172   142   141   ar
   173   141   143   ar
   174   101   100    2
   175   115   112    1
   176    87    88    2
   177   100    99    1
   178   100   102   am
   179   112   111    1
   180   112   113    1
   181    99    98    1
   182    98    95    1
   183   113   114    2
   184    94    95    1
   185    95    96    1
   186    96    97    2
