@<TRIPOS>MOLECULE
tmp/3d1eA00.pdb
 176 169 0 0 0
SMALL
GASTEIGER

@<TRIPOS>ATOM
      1  N        -69.6400  -66.9550  -80.2520 N.3   152  ARG152     -0.1245
      2  CA       -69.6750  -68.2840  -80.8560 C.3   152  ARG152      0.1563
      3  C        -71.1150  -68.4910  -81.3050 C.2   152  ARG152      0.2260
      4  O        -71.8850  -69.1850  -80.6330 O.2   152  ARG152     -0.2867
      5  CB       -69.2940  -69.3570  -79.8290 C.3   152  ARG152      0.0307
      6  CG       -67.9200  -69.1610  -79.1980 C.3   152  ARG152      0.0489
      7  CD       -68.0270  -68.6960  -77.7540 C.3   152  ARG152      0.2205
      8  NE       -68.3220  -69.7990  -76.8430 N.pl3 152  ARG152     -0.0865
      9  CZ       -68.6650  -69.6460  -75.5670 C.cat 152  ARG152      0.5346
     10  NH1      -68.7650  -68.4340  -75.0430 N.pl3 152  ARG152      0.1354
     11  NH2      -68.8990  -70.7090  -74.8100 N.pl3 152  ARG152      0.1354
     12  N        -72.6080  -70.3980  -83.0770 N.3   154  TYR154     -0.1227
     13  CA       -73.1370  -71.7540  -83.1110 C.3   154  TYR154      0.1736
     14  C        -73.8300  -72.1310  -81.8040 C.2   154  TYR154      0.2595
     15  O        -74.5040  -73.1600  -81.7320 O.2   154  TYR154     -0.2718
     16  CB       -72.0300  -72.7570  -83.4500 C.3   154  TYR154      0.0548
     17  CG       -70.8100  -72.6900  -82.5650 C.ar  154  TYR154     -0.0200
     18  CD1      -70.7900  -73.3100  -81.3160 C.ar  154  TYR154     -0.0009
     19  CD2      -69.6630  -72.0120  -82.9850 C.ar  154  TYR154     -0.0009
     20  CE1      -69.6560  -73.2600  -80.5080 C.ar  154  TYR154      0.0417
     21  CE2      -68.5230  -71.9550  -82.1860 C.ar  154  TYR154      0.0417
     22  CZ       -68.5260  -72.5800  -80.9520 C.ar  154  TYR154      0.1957
     23  OH       -67.4000  -72.5240  -80.1650 O.3   154  TYR154     -0.2866
     24  N        -73.6650  -71.3000  -80.7750 N.am  155  LEU155     -0.1980
     25  CA       -74.3110  -71.5420  -79.4840 C.3   155  LEU155      0.1596
     26  C        -75.6630  -70.8290  -79.4520 C.2   155  LEU155      0.2287
     27  O        -76.5230  -71.1320  -78.6250 O.2   155  LEU155     -0.2864
     28  CB       -73.4440  -71.0230  -78.3300 C.3   155  LEU155      0.0297
     29  CG       -72.1740  -71.8090  -77.9920 C.3   155  LEU155      0.0022
     30  CD1      -71.4630  -71.1470  -76.8210 C.3   155  LEU155      0.0001
     31  CD2      -72.5310  -73.2490  -77.6520 C.3   155  LEU155      0.0001
     32  N        -76.9700  -74.8760  -75.0480 N.3   172  THR172     -0.1218
     33  CA       -76.0790  -74.4490  -73.9840 C.3   172  THR172      0.1862
     34  C        -75.5340  -73.0680  -74.3210 C.2   172  THR172      0.2287
     35  O        -75.4250  -72.7030  -75.4940 O.2   172  THR172     -0.2866
     36  CB       -74.9050  -75.4490  -73.8100 C.3   172  THR172      0.1770
     37  OG1      -74.0350  -74.9970  -72.7660 O.3   172  THR172     -0.2211
     38  CG2      -74.1130  -75.5810  -75.1050 C.3   172  THR172      0.0375
     39  N        -72.7200  -71.9660  -72.4770 N.3   174  GLY174     -0.1210
     40  CA       -71.4040  -71.9490  -71.8680 C.3   174  GLY174      0.1956
     41  C        -71.4340  -72.0220  -70.3530 C.2   174  GLY174      0.2612
     42  O        -70.4440  -72.4090  -69.7360 O.2   174  GLY174     -0.2717
     43  N        -72.5630  -71.6540  -69.7510 N.am  175  HIS175     -0.1961
     44  CA       -72.7070  -71.6850  -68.2930 C.3   175  HIS175      0.1787
     45  C        -73.6320  -72.8220  -67.8860 C.2   175  HIS175      0.2620
     46  O        -73.4200  -73.4790  -66.8680 O.2   175  HIS175     -0.2715
     47  CB       -73.2870  -70.3650  -67.7750 C.3   175  HIS175      0.0785
     48  CG       -72.4860  -69.1600  -68.1530 C.ar  175  HIS175      0.0821
     49  ND1      -71.1200  -69.0920  -67.9890 N.ar  175  HIS175     -0.2267
     50  CD2      -72.8650  -67.9620  -68.6580 C.ar  175  HIS175      0.1154
     51  CE1      -70.6910  -67.9040  -68.3750 C.ar  175  HIS175      0.1986
     52  NE2      -71.7300  -67.1990  -68.7850 N.ar  175  HIS175     -0.2212
     53  N        -74.6760  -73.0360  -68.6780 N.am  176  ARG176     -0.1963
     54  CA       -75.6200  -74.1100  -68.4070 C.3   176  ARG176      0.1729
     55  C        -75.9620  -74.8520  -69.6900 C.2   176  ARG176      0.2616
     56  O        -75.7670  -74.3270  -70.7900 O.2   176  ARG176     -0.2715
     57  CB       -76.8860  -73.5700  -67.7120 C.3   176  ARG176      0.0348
     58  CG       -77.3380  -72.1540  -68.0920 C.3   176  ARG176      0.0492
     59  CD       -78.1620  -72.1410  -69.3690 C.3   176  ARG176      0.2205
     60  NE       -78.7350  -70.8230  -69.6510 N.pl3 176  ARG176     -0.0865
     61  CZ       -79.8320  -70.3330  -69.0760 C.cat 176  ARG176      0.5346
     62  NH1      -80.4960  -71.0420  -68.1750 N.pl3 176  ARG176      0.1354
     63  NH2      -80.2760  -69.1310  -69.4160 N.pl3 176  ARG176      0.1354
     64  N        -76.4630  -76.0760  -69.5480 N.am  177  LEU177     -0.1977
     65  CA       -76.7960  -76.8850  -70.7090 C.3   177  LEU177      0.1596
     66  C        -78.0460  -77.7200  -70.5190 C.2   177  LEU177      0.2287
     67  O        -78.3750  -78.1370  -69.4090 O.2   177  LEU177     -0.2864
     68  CB       -75.6160  -77.7990  -71.0650 C.3   177  LEU177      0.0297
     69  CG       -75.7960  -78.8280  -72.1840 C.3   177  LEU177      0.0022
     70  CD1      -74.4660  -79.0710  -72.8670 C.3   177  LEU177      0.0001
     71  CD2      -76.3570  -80.1170  -71.6210 C.3   177  LEU177      0.0001
     72  N        -70.7380  -78.1400  -79.0170 N.3   242  PRO242     -0.2116
     73  CA       -70.1470  -78.9820  -77.9700 C.3   242  PRO242      0.1372
     74  C        -70.8650  -80.3210  -77.7800 C.2   242  PRO242      0.2244
     75  O        -72.0550  -80.4550  -78.0750 O.2   242  PRO242     -0.2868
     76  CB       -70.2130  -78.0910  -76.7250 C.3   242  PRO242      0.0268
     77  CG       -71.3650  -77.1710  -77.0080 C.3   242  PRO242      0.0207
     78  CD       -71.1770  -76.8440  -78.4700 C.3   242  PRO242      0.0892
     79  N        -69.9210  -82.8930  -71.2310 N.3   247  VAL247     -0.1245
     80  CA       -70.3090  -81.8930  -70.2420 C.3   247  VAL247      0.1561
     81  C        -71.0190  -82.4980  -69.0400 C.2   247  VAL247      0.2260
     82  O        -70.9300  -81.9600  -67.9360 O.2   247  VAL247     -0.2867
     83  CB       -71.2120  -80.8100  -70.8740 C.3   247  VAL247      0.0252
     84  CG1      -71.6270  -79.7910  -69.8220 C.3   247  VAL247      0.0019
     85  CG2      -70.4700  -80.1200  -72.0070 C.3   247  VAL247      0.0019
     86  N        -75.4880  -60.6090  -60.3750 N.3   278  PHE278     -0.1241
     87  CA       -74.9950  -61.9790  -60.4420 C.3   278  PHE278      0.1605
     88  C        -75.9380  -63.1140  -60.0210 C.2   278  PHE278      0.2264
     89  O        -75.6540  -64.2880  -60.2860 O.2   278  PHE278     -0.2867
     90  CB       -73.6850  -62.0440  -59.6600 C.3   278  PHE278      0.0534
     91  CG       -72.7140  -60.9570  -60.0370 C.ar  278  PHE278     -0.0203
     92  CD1      -72.1370  -60.9280  -61.3070 C.ar  278  PHE278     -0.0042
     93  CD2      -72.4120  -59.9340  -59.1430 C.ar  278  PHE278     -0.0042
     94  CE1      -71.2730  -59.8910  -61.6820 C.ar  278  PHE278     -0.0003
     95  CE2      -71.5500  -58.8940  -59.5080 C.ar  278  PHE278     -0.0003
     96  CZ       -70.9820  -58.8760  -60.7810 C.ar  278  PHE278     -0.0000
     97  N        -76.2340  -69.5300  -59.9150 N.3   320  ASN320     -0.1240
     98  CA       -76.9740  -68.3810  -60.4000 C.3   320  ASN320      0.1653
     99  C        -78.4000  -68.9110  -60.2190 C.2   320  ASN320      0.2266
    100  O        -78.7760  -69.9000  -60.8480 O.2   320  ASN320     -0.2867
    101  CB       -76.6850  -68.1570  -61.8810 C.3   320  ASN320      0.1155
    102  CG       -77.6050  -67.1250  -62.5010 C.2   320  ASN320      0.2627
    103  OD1      -78.8150  -67.1500  -62.2850 O.2   320  ASN320     -0.2716
    104  ND2      -77.0360  -66.2180  -63.2830 N.am  320  ASN320     -0.0877
    105  N        -80.6030  -69.6260  -63.4100 N.3   323  TYR323     -0.1241
    106  CA       -80.3160  -70.8480  -64.1580 C.3   323  TYR323      0.1605
    107  C        -80.9980  -72.0270  -63.4860 C.2   323  TYR323      0.2264
    108  O        -81.4640  -72.9440  -64.1530 O.2   323  TYR323     -0.2867
    109  CB       -78.8130  -71.1350  -64.2200 C.3   323  TYR323      0.0534
    110  CG       -78.0010  -70.1060  -64.9650 C.ar  323  TYR323     -0.0201
    111  CD1      -78.5770  -69.3200  -65.9600 C.ar  323  TYR323     -0.0009
    112  CD2      -76.6400  -69.9590  -64.7140 C.ar  323  TYR323     -0.0009
    113  CE1      -77.8230  -68.4200  -66.6870 C.ar  323  TYR323      0.0417
    114  CE2      -75.8740  -69.0610  -65.4400 C.ar  323  TYR323      0.0417
    115  CZ       -76.4750  -68.2970  -66.4250 C.ar  323  TYR323      0.1957
    116  OH       -75.7260  -67.4210  -67.1640 O.3   323  TYR323     -0.2866
    117  N        -68.0790  -78.1990  -54.7170 N.3   343  SER343     -0.1202
    118  CA       -68.4580  -76.8000  -54.8740 C.3   343  SER343      0.2020
    119  C        -67.9610  -76.1000  -56.1350 C.2   343  SER343      0.2618
    120  O        -68.4750  -75.0400  -56.4940 O.2   343  SER343     -0.2717
    121  CB       -68.0080  -76.0060  -53.6420 C.3   343  SER343      0.2103
    122  OG       -66.6040  -76.0720  -53.4730 O.3   343  SER343     -0.2182
    123  N        -66.9730  -76.6800  -56.8110 N.am  344  VAL344     -0.1979
    124  CA       -66.4310  -76.0600  -58.0150 C.3   344  VAL344      0.1595
    125  C        -66.7610  -76.8470  -59.2760 C.2   344  VAL344      0.2287
    126  O        -66.2840  -76.5170  -60.3640 O.2   344  VAL344     -0.2864
    127  CB       -64.8980  -75.9030  -57.9270 C.3   344  VAL344      0.0276
    128  CG1      -64.5320  -75.1070  -56.6910 C.3   344  VAL344      0.0022
    129  CG2      -64.2330  -77.2690  -57.8960 C.3   344  VAL344      0.0022
    130  N        -69.7650  -78.6630  -61.8840 N.3   346  SER346     -0.1217
    131  CA       -71.1390  -78.4800  -62.3440 C.3   346  SER346      0.1889
    132  C        -72.0570  -79.4860  -61.6620 C.2   346  SER346      0.2288
    133  O        -71.5980  -80.4690  -61.0810 O.2   346  SER346     -0.2866
    134  CB       -71.2220  -78.6760  -63.8570 C.3   346  SER346      0.2089
    135  OG       -70.9760  -80.0270  -64.1980 O.3   346  SER346     -0.2183
    136  N        -77.3580  -79.4060  -67.0190 N.3   360  VAL360     -0.1245
    137  CA       -76.0720  -79.2140  -66.3780 C.3   360  VAL360      0.1561
    138  C        -75.8810  -77.7310  -66.1040 C.2   360  VAL360      0.2260
    139  O        -76.0980  -76.8940  -66.9810 O.2   360  VAL360     -0.2867
    140  CB       -74.9360  -79.7510  -67.2690 C.3   360  VAL360      0.0252
    141  CG1      -73.5790  -79.5030  -66.6090 C.3   360  VAL360      0.0019
    142  CG2      -75.1450  -81.2420  -67.5030 C.3   360  VAL360      0.0019
    143  N        -73.1220  -74.9430  -64.2380 N.3   362  MET362     -0.1231
    144  CA       -71.8410  -74.6840  -63.5880 C.3   362  MET362      0.1687
    145  C        -72.0850  -73.8110  -62.3740 C.2   362  MET362      0.2434
    146  O        -72.7900  -72.8030  -62.4540 O.2   362  MET362     -0.2733
    147  CB       -70.8630  -73.9570  -64.5200 C.3   362  MET362      0.0400
    148  CG       -69.9730  -74.8630  -65.3430 C.3   362  MET362      0.0596
    149  SD       -69.1190  -76.1430  -64.3930 S.3   362  MET362     -0.1393
    150  CE       -67.5510  -75.3380  -64.0210 C.3   362  MET362      0.0692
    151  N        -71.5040  -74.1830  -61.2270 N.am  363  PRO363     -0.2718
    152  CA       -71.6900  -73.3900  -60.0110 C.3   363  PRO363      0.1535
    153  C        -70.9810  -72.0470  -60.0920 C.2   363  PRO363      0.2598
    154  O        -70.2100  -71.7880  -61.0150 O.2   363  PRO363     -0.2715
    155  CB       -71.1030  -74.2860  -58.9240 C.3   363  PRO363      0.0310
    156  CG       -69.9930  -75.0060  -59.6490 C.3   363  PRO363      0.0237
    157  CD       -70.6650  -75.3680  -60.9660 C.3   363  PRO363      0.0939
    158  N        -71.2610  -71.1880  -59.1210 N.am  364  MET364     -0.1964
    159  CA       -70.6280  -69.8810  -59.0580 C.3   364  MET364      0.1736
    160  C        -69.5540  -69.9180  -57.9900 C.2   364  MET364      0.2616
    161  O        -69.6500  -70.6890  -57.0360 O.2   364  MET364     -0.2715
    162  CB       -71.6480  -68.8040  -58.6980 C.3   364  MET364      0.0427
    163  CG       -72.5440  -68.3840  -59.8380 C.3   364  MET364      0.0599
    164  SD       -73.7700  -67.2200  -59.2540 S.3   364  MET364     -0.1393
    165  CE       -72.8060  -65.7030  -59.1280 C.3   364  MET364      0.0692
    166  N        -68.5350  -69.0820  -58.1540 N.am  365  ARG365     -0.1977
    167  CA       -67.4480  -69.0080  -57.1890 C.3   365  ARG365      0.1597
    168  C        -67.7270  -67.9030  -56.1840 C.2   365  ARG365      0.2287
    169  O        -68.0930  -66.7910  -56.5610 O.2   365  ARG365     -0.2864
    170  CB       -66.1160  -68.7140  -57.8880 C.3   365  ARG365      0.0334
    171  CG       -65.5360  -69.8590  -58.6970 C.3   365  ARG365      0.0492
    172  CD       -64.1940  -69.4520  -59.2990 C.3   365  ARG365      0.2205
    173  NE       -63.5350  -70.5500  -60.0030 N.pl3 365  ARG365     -0.0865
    174  CZ       -62.3790  -70.4360  -60.6530 C.cat 365  ARG365      0.5346
    175  NH1      -61.7480  -69.2690  -60.6920 N.pl3 365  ARG365      0.1354
    176  NH2      -61.8540  -71.4900  -61.2670 N.pl3 365  ARG365      0.1354
@<TRIPOS>BOND
     1    16    13    1
     2    16    17    1
     3    13    12    1
     4    13    14    1
     5    19    17   ar
     6    19    21   ar
     7    17    18   ar
     8    21    22   ar
     9    14    15    2
    10    14    24   am
    11    18    20   ar
    12     3     2    1
    13     3     4    2
    14    22    20   ar
    15    22    23    1
    16     2     1    1
    17     2     5    1
    18    24    25    1
    19     5     6    1
    20    25    26    1
    21    25    28    1
    22    26    27    2
    23     6     7    1
    24    72    78    1
    25    72    73    1
    26    78    77    1
    27    28    29    1
    28    75    74    2
    29    29    31    1
    30    29    30    1
    31    73    74    1
    32    73    76    1
    33     7     8    1
    34    77    76    1
    35     8     9    2
    36     9    10    1
    37     9    11    1
    38    35    34    2
    39    38    36    1
    40    32    33    1
    41    34    33    1
    42    33    36    1
    43    36    37    1
    44    70    69    1
    45    39    40    1
    46    69    71    1
    47    69    68    1
    48    85    83    1
    49    40    41    1
    50    79    80    1
    51    68    65    1
    52    83    80    1
    53    83    84    1
    54    56    55    2
    55    65    66    1
    56    65    64    1
    57    66    67    2
    58    41    43   am
    59    41    42    2
    60    80    81    1
    61    43    44    1
    62    55    64   am
    63    55    54    1
    64    60    59    1
    65    60    61    2
    66    63    61    1
    67    59    58    1
    68    61    62    1
    69    81    82    2
    70    52    50   ar
    71    52    51   ar
    72    53    54    1
    73    53    45   am
    74    50    48   ar
    75    54    57    1
    76    51    49   ar
    77    44    45    1
    78    44    47    1
    79    48    49   ar
    80    48    47    1
    81    58    57    1
    82    45    46    2
    83   142   140    1
    84   140   141    1
    85   140   137    1
    86   116   115    1
    87   136   137    1
    88   139   138    2
    89   113   115   ar
    90   113   111   ar
    91   115   114   ar
    92   137   138    1
    93   111   110   ar
    94   114   112   ar
    95   148   147    1
    96   148   149    1
    97   110   112   ar
    98   110   109    1
    99   147   144    1
   100   149   150    1
   101   143   144    1
   102   109   106    1
   103   135   134    1
   104   106   107    1
   105   106   105    1
   106   108   107    2
   107   134   131    1
   108   144   145    1
   109   104   102   am
   110   102   103    2
   111   102   101    1
   112   146   145    2
   113   145   151   am
   114   131   130    1
   115   131   132    1
   116   101    98    1
   117    94    92   ar
   118    94    96   ar
   119   132   133    2
   120    92    91   ar
   121   176   174    1
   122   151   157    1
   123   151   152    1
   124   154   153    2
   125   157   156    1
   126   100    99    2
   127    96    95   ar
   128   175   174    1
   129   174   173    2
   130    87    86    1
   131    87    88    1
   132    87    90    1
   133    98    99    1
   134    98    97    1
   135   126   125    2
   136    89    88    2
   137   153   152    1
   138   153   158   am
   139    91    90    1
   140    91    93   ar
   141   152   155    1
   142   173   172    1
   143   163   164    1
   144   163   162    1
   145   156   155    1
   146    95    93   ar
   147   172   171    1
   148   125   124    1
   149   164   165    1
   150   158   159    1
   151   159   162    1
   152   159   160    1
   153   171   170    1
   154   166   160   am
   155   166   167    1
   156   124   127    1
   157   124   123    1
   158   160   161    2
   159   127   129    1
   160   127   128    1
   161   170   167    1
   162   167   168    1
   163   123   119   am
   164   169   168    2
   165   120   119    2
   166   119   118    1
   167   118   117    1
   168   118   121    1
   169   121   122    1
