@<TRIPOS>MOLECULE
tmp/3d1fB00.pdb
 206 198 0 0 0
SMALL
GASTEIGER

@<TRIPOS>ATOM
      1  N         67.1530  111.3910   67.1110 N.3   152  ARG152     -0.1245
      2  CA        67.7060  112.5970   66.5120 C.3   152  ARG152      0.1563
      3  C         67.4390  113.6940   67.5410 C.2   152  ARG152      0.2260
      4  O         66.4280  114.4060   67.4850 O.2   152  ARG152     -0.2867
      5  CB        67.0080  112.8860   65.1830 C.3   152  ARG152      0.0307
      6  CG        67.3500  111.8660   64.0950 C.3   152  ARG152      0.0489
      7  CD        66.3960  111.9610   62.9220 C.3   152  ARG152      0.2205
      8  NE        65.0280  111.6680   63.3350 N.pl3 152  ARG152     -0.0865
      9  CZ        63.9760  111.6990   62.5240 C.cat 152  ARG152      0.5346
     10  NH1       64.1300  112.0110   61.2410 N.pl3 152  ARG152      0.1354
     11  NH2       62.7710  111.4200   62.9980 N.pl3 152  ARG152      0.1354
     12  N         68.4910  116.6700   68.1510 N.3   154  TYR154     -0.1227
     13  CA        68.2360  118.0370   67.7110 C.3   154  TYR154      0.1736
     14  C         66.7650  118.3210   67.3970 C.2   154  TYR154      0.2595
     15  O         66.3700  119.4790   67.2690 O.2   154  TYR154     -0.2718
     16  CB        69.1220  118.3650   66.5040 C.3   154  TYR154      0.0548
     17  CG        69.0070  117.3840   65.3580 C.ar  154  TYR154     -0.0200
     18  CD1       67.9550  117.4640   64.4480 C.ar  154  TYR154     -0.0009
     19  CD2       69.9430  116.3620   65.1950 C.ar  154  TYR154     -0.0009
     20  CE1       67.8340  116.5530   63.4040 C.ar  154  TYR154      0.0417
     21  CE2       69.8310  115.4430   64.1540 C.ar  154  TYR154      0.0417
     22  CZ        68.7750  115.5440   63.2640 C.ar  154  TYR154      0.1957
     23  OH        68.6440  114.6290   62.2430 O.3   154  TYR154     -0.2866
     24  N         65.9580  117.2710   67.2760 N.am  155  LEU155     -0.1980
     25  CA        64.5340  117.4460   67.0030 C.3   155  LEU155      0.1596
     26  C         63.7180  117.5540   68.2940 C.2   155  LEU155      0.2287
     27  O         62.5690  117.9800   68.2710 O.2   155  LEU155     -0.2864
     28  CB        64.0020  116.2850   66.1630 C.3   155  LEU155      0.0297
     29  CG        64.6010  116.1730   64.7590 C.3   155  LEU155      0.0022
     30  CD1       63.9230  115.0400   64.0090 C.3   155  LEU155      0.0001
     31  CD2       64.4280  117.4890   64.0210 C.3   155  LEU155      0.0001
     32  N         60.0060  120.4530   64.4400 N.3   172  THR172     -0.1218
     33  CA        59.5970  119.3650   63.5670 C.3   172  THR172      0.1862
     34  C         59.9430  118.0180   64.1880 C.2   172  THR172      0.2287
     35  O         60.8860  117.9110   64.9780 O.2   172  THR172     -0.2866
     36  CB        60.2640  119.4830   62.1660 C.3   172  THR172      0.1770
     37  OG1       59.7770  118.4440   61.3140 O.3   172  THR172     -0.2211
     38  CG2       61.7830  119.3640   62.2770 C.3   172  THR172      0.0375
     39  N         59.8740  115.1860   62.0410 N.3   174  GLY174     -0.1210
     40  CA        60.0800  114.3110   60.9030 C.3   174  GLY174      0.1956
     41  C         58.8050  114.0130   60.1380 C.2   174  GLY174      0.2612
     42  O         58.8600  113.5950   58.9810 O.2   174  GLY174     -0.2717
     43  N         57.6520  114.2130   60.7720 N.am  175  HIS175     -0.1961
     44  CA        56.3820  113.9580   60.0970 C.3   175  HIS175      0.1787
     45  C         55.6820  115.2650   59.7720 C.2   175  HIS175      0.2620
     46  O         54.9600  115.3620   58.7890 O.2   175  HIS175     -0.2715
     47  CB        55.4600  113.0880   60.9530 C.3   175  HIS175      0.0785
     48  CG        55.9930  111.7140   61.2050 C.ar  175  HIS175      0.0821
     49  ND1       56.9920  111.1520   60.4390 N.ar  175  HIS175     -0.2267
     50  CD2       55.6580  110.7840   62.1290 C.ar  175  HIS175      0.1154
     51  CE1       57.2480  109.9350   60.8830 C.ar  175  HIS175      0.1986
     52  NE2       56.4540  109.6870   61.9070 N.ar  175  HIS175     -0.2212
     53  N         55.8850  116.2620   60.6220 N.am  176  ARG176     -0.1963
     54  CA        55.2910  117.5710   60.4060 C.3   176  ARG176      0.1729
     55  C         56.2250  118.6450   60.9380 C.2   176  ARG176      0.2616
     56  O         57.0950  118.3750   61.7700 O.2   176  ARG176     -0.2715
     57  CB        53.8940  117.6630   61.0630 C.3   176  ARG176      0.0348
     58  CG        53.6960  116.8760   62.3650 C.3   176  ARG176      0.0492
     59  CD        54.2710  117.5860   63.5690 C.3   176  ARG176      0.2205
     60  NE        53.9970  116.8680   64.8190 N.pl3 176  ARG176     -0.0865
     61  CZ        52.8300  116.8810   65.4650 C.cat 176  ARG176      0.5346
     62  NH1       51.8010  117.5810   64.9890 N.pl3 176  ARG176      0.1354
     63  NH2       52.6910  116.1980   66.5970 N.pl3 176  ARG176      0.1354
     64  N         56.0540  119.8630   60.4420 N.am  177  LEU177     -0.1977
     65  CA        56.8920  120.9750   60.8530 C.3   177  LEU177      0.1596
     66  C         56.0540  122.2370   61.0270 C.2   177  LEU177      0.2287
     67  O         54.9950  122.3920   60.4110 O.2   177  LEU177     -0.2864
     68  CB        57.9940  121.2060   59.8030 C.3   177  LEU177      0.0297
     69  CG        58.9330  122.4190   59.9400 C.3   177  LEU177      0.0022
     70  CD1       60.2610  122.1280   59.2470 C.3   177  LEU177      0.0001
     71  CD2       58.2920  123.6640   59.3420 C.3   177  LEU177      0.0001
     72  N         67.3720  120.8140   60.7500 N.3   242  PRO242     -0.2102
     73  CA        66.9960  120.8790   59.3350 C.3   242  PRO242      0.1504
     74  C         66.5470  122.2660   58.8780 C.2   242  PRO242      0.2575
     75  O         66.1600  123.1050   59.6900 O.2   242  PRO242     -0.2718
     76  CB        65.8950  119.8200   59.2150 C.3   242  PRO242      0.0282
     77  CG        65.3400  119.7290   60.6020 C.3   242  PRO242      0.0208
     78  CD        66.5780  119.7980   61.4580 C.3   242  PRO242      0.0893
     79  N         66.6120  122.4920   57.5700 N.am  243  ASP243     -0.1974
     80  CA        66.2380  123.7680   56.9640 C.3   243  ASP243      0.1708
     81  C         64.7850  123.6880   56.5110 C.2   243  ASP243      0.2293
     82  O         64.4820  123.0140   55.5260 O.2   243  ASP243     -0.2864
     83  CB        67.1430  124.0330   55.7570 C.3   243  ASP243      0.1436
     84  CG        66.9430  125.4100   55.1620 C.2   243  ASP243      0.3671
     85  OD1       65.8870  126.0360   55.4160 O.co2 243  ASP243     -0.2456
     86  OD2       67.8450  125.8600   54.4220 O.co2 243  ASP243     -0.2456
     87  N         63.5360  123.7850   52.8690 N.3   246  ARG246     -0.1231
     88  CA        63.6340  122.6010   52.0250 C.3   246  ARG246      0.1694
     89  C         62.4260  121.6650   52.0340 C.2   246  ARG246      0.2591
     90  O         62.3180  120.7970   51.1700 O.2   246  ARG246     -0.2718
     91  CB        64.8940  121.8140   52.3830 C.3   246  ARG246      0.0321
     92  CG        66.1810  122.4930   51.9540 C.3   246  ARG246      0.0489
     93  CD        67.3890  121.6910   52.4050 C.3   246  ARG246      0.2205
     94  NE        68.6170  122.1020   51.7320 N.pl3 246  ARG246     -0.0865
     95  CZ        68.8760  121.8880   50.4450 C.cat 246  ARG246      0.5346
     96  NH1       67.9910  121.2660   49.6790 N.pl3 246  ARG246      0.1354
     97  NH2       70.0280  122.2900   49.9240 N.pl3 246  ARG246      0.1354
     98  N         61.5190  121.8230   52.9940 N.am  247  VAL247     -0.1980
     99  CA        60.3430  120.9560   53.0290 C.3   247  VAL247      0.1595
    100  C         59.0960  121.6600   52.5060 C.2   247  VAL247      0.2287
    101  O         58.0730  121.0210   52.2650 O.2   247  VAL247     -0.2864
    102  CB        60.0580  120.4140   54.4530 C.3   247  VAL247      0.0276
    103  CG1       61.2480  119.6100   54.9430 C.3   247  VAL247      0.0022
    104  CG2       59.7520  121.5530   55.4020 C.3   247  VAL247      0.0022
    105  N         57.2830  122.9230   46.5220 N.3   250  LYS250     -0.1245
    106  CA        57.7840  123.7390   45.4230 C.3   250  LYS250      0.1561
    107  C         56.7880  123.7350   44.2700 C.2   250  LYS250      0.2260
    108  O         56.3100  122.6790   43.8440 O.2   250  LYS250     -0.2867
    109  CB        59.1460  123.2250   44.9430 C.3   250  LYS250      0.0271
    110  CG        59.2450  121.7140   44.8120 C.3   250  LYS250      0.0035
    111  CD        59.8100  121.0790   46.0770 C.3   250  LYS250      0.0206
    112  CE        61.2610  121.4960   46.3060 C.3   250  LYS250      0.1093
    113  NZ        61.8490  120.8830   47.5340 N.3   250  LYS250     -0.1314
    114  N         46.6020  104.5270   64.0930 N.3   278  PHE278     -0.1241
    115  CA        47.2090  105.1270   62.9050 C.3   278  PHE278      0.1605
    116  C         46.5310  106.4320   62.4710 C.2   278  PHE278      0.2264
    117  O         47.1020  107.2120   61.7060 O.2   278  PHE278     -0.2867
    118  CB        47.2430  104.1070   61.7660 C.3   278  PHE278      0.0534
    119  CG        48.1120  102.9120   62.0630 C.ar  278  PHE278     -0.0203
    120  CD1       47.6030  101.6180   61.9700 C.ar  278  PHE278     -0.0042
    121  CD2       49.4400  103.0830   62.4570 C.ar  278  PHE278     -0.0042
    122  CE1       48.4030  100.5090   62.2660 C.ar  278  PHE278     -0.0003
    123  CE2       50.2490  101.9830   62.7550 C.ar  278  PHE278     -0.0003
    124  CZ        49.7290  100.6940   62.6590 C.ar  278  PHE278     -0.0000
    125  N         47.4220  111.8310   58.7440 N.3   320  ASN320     -0.1240
    126  CA        47.2450  111.4190   60.1290 C.3   320  ASN320      0.1653
    127  C         46.3520  112.5720   60.5890 C.2   320  ASN320      0.2266
    128  O         46.7990  113.7190   60.6160 O.2   320  ASN320     -0.2867
    129  CB        48.5830  111.4680   60.8770 C.3   320  ASN320      0.1155
    130  CG        48.4310  111.2050   62.3630 C.2   320  ASN320      0.2627
    131  OD1       47.5110  111.7200   62.9950 O.2   320  ASN320     -0.2716
    132  ND2       49.3440  110.4110   62.9330 N.am  320  ASN320     -0.0877
    133  N         47.6420  115.1120   63.2440 N.3   323  TYR323     -0.1241
    134  CA        48.5790  116.1270   62.7670 C.3   323  TYR323      0.1605
    135  C         47.8130  117.2870   62.1360 C.2   323  TYR323      0.2264
    136  O         48.1820  118.4460   62.3020 O.2   323  TYR323     -0.2867
    137  CB        49.5430  115.5480   61.7220 C.3   323  TYR323      0.0534
    138  CG        50.5000  114.4980   62.2490 C.ar  323  TYR323     -0.0201
    139  CD1       50.8240  114.4350   63.6040 C.ar  323  TYR323     -0.0009
    140  CD2       51.1300  113.6080   61.3780 C.ar  323  TYR323     -0.0009
    141  CE1       51.7580  113.5120   64.0790 C.ar  323  TYR323      0.0417
    142  CE2       52.0590  112.6880   61.8350 C.ar  323  TYR323      0.0417
    143  CZ        52.3710  112.6460   63.1870 C.ar  323  TYR323      0.1957
    144  OH        53.3010  111.7440   63.6410 O.3   323  TYR323     -0.2866
    145  N         51.8910  112.0690   47.8130 N.3   344  VAL344     -0.1245
    146  CA        52.8570  111.6460   48.8110 C.3   344  VAL344      0.1561
    147  C         53.8580  112.7360   49.1500 C.2   344  VAL344      0.2260
    148  O         54.8940  112.4700   49.7580 O.2   344  VAL344     -0.2867
    149  CB        53.6060  110.3830   48.3380 C.3   344  VAL344      0.0252
    150  CG1       52.6190  109.2440   48.1470 C.3   344  VAL344      0.0019
    151  CG2       54.3370  110.6620   47.0310 C.3   344  VAL344      0.0019
    152  N         54.7930  116.9140   50.5830 N.3   346  SER346     -0.1217
    153  CA        54.4680  117.9140   51.5870 C.3   346  SER346      0.1889
    154  C         53.2450  118.7430   51.2430 C.2   346  SER346      0.2288
    155  O         52.9810  119.0510   50.0800 O.2   346  SER346     -0.2866
    156  CB        55.6480  118.8750   51.7920 C.3   346  SER346      0.2089
    157  OG        56.8080  118.1950   52.2440 O.3   346  SER346     -0.2183
    158  N         53.8710  122.4470   57.7050 N.3   360  VAL360     -0.1245
    159  CA        54.0420  121.4440   56.6750 C.3   360  VAL360      0.1561
    160  C         53.7300  120.0950   57.2850 C.2   360  VAL360      0.2260
    161  O         54.2230  119.7580   58.3660 O.2   360  VAL360     -0.2867
    162  CB        55.4790  121.4250   56.1290 C.3   360  VAL360      0.0252
    163  CG1       55.6500  120.2670   55.1520 C.3   360  VAL360      0.0019
    164  CG2       55.7820  122.7450   55.4430 C.3   360  VAL360      0.0019
    165  N         53.4300  115.9010   56.3140 N.3   362  MET362     -0.1231
    166  CA        53.6590  114.8510   55.3300 C.3   362  MET362      0.1687
    167  C         52.4570  113.9250   55.3570 C.2   362  MET362      0.2434
    168  O         51.9800  113.5410   56.4240 O.2   362  MET362     -0.2733
    169  CB        54.9340  114.0620   55.6440 C.3   362  MET362      0.0400
    170  CG        56.2200  114.7670   55.2310 C.3   362  MET362      0.0596
    171  SD        56.1960  115.3010   53.4930 S.3   362  MET362     -0.1393
    172  CE        56.9550  113.9040   52.6630 C.3   362  MET362      0.0692
    173  N         51.9490  113.5490   54.1780 N.am  363  PRO363     -0.2718
    174  CA        50.7870  112.6610   54.1280 C.3   363  PRO363      0.1535
    175  C         51.1330  111.2170   54.4490 C.2   363  PRO363      0.2598
    176  O         52.2960  110.8790   54.7090 O.2   363  PRO363     -0.2715
    177  CB        50.3080  112.8190   52.6880 C.3   363  PRO363      0.0310
    178  CG        51.5980  112.9530   51.9430 C.3   363  PRO363      0.0237
    179  CD        52.3910  113.9170   52.8190 C.3   363  PRO363      0.0939
    180  N         50.1090  110.3750   54.4720 N.am  364  MET364     -0.1964
    181  CA        50.3320  108.9610   54.6760 C.3   364  MET364      0.1736
    182  C         49.7800  108.2440   53.4510 C.2   364  MET364      0.2616
    183  O         48.8710  108.7450   52.7780 O.2   364  MET364     -0.2715
    184  CB        49.7220  108.4410   56.0010 C.3   364  MET364      0.0427
    185  CG        48.3790  108.9590   56.4660 C.3   364  MET364      0.0599
    186  SD        48.1110  108.5460   58.2610 S.3   364  MET364     -0.1393
    187  CE        47.9200  106.7700   58.2110 C.3   364  MET364      0.0692
    188  N         50.3800  107.1070   53.1270 N.am  365  ARG365     -0.1963
    189  CA        49.9670  106.3270   51.9740 C.3   365  ARG365      0.1729
    190  C         48.7440  105.4900   52.3150 C.2   365  ARG365      0.2616
    191  O         48.8450  104.4580   52.9720 O.2   365  ARG365     -0.2715
    192  CB        51.1210  105.4300   51.5140 C.3   365  ARG365      0.0348
    193  CG        52.3180  106.2020   50.9660 C.3   365  ARG365      0.0492
    194  CD        53.5070  105.2870   50.7110 C.3   365  ARG365      0.2205
    195  NE        54.6320  105.9890   50.0950 N.pl3 365  ARG365     -0.0865
    196  CZ        54.7450  106.2190   48.7910 C.cat 365  ARG365      0.5346
    197  NH1       53.8010  105.7980   47.9580 N.pl3 365  ARG365      0.1354
    198  NH2       55.7980  106.8790   48.3190 N.pl3 365  ARG365      0.1354
    199  N         47.5820  105.9560   51.8770 N.am  366  LEU366     -0.1977
    200  CA        46.3340  105.2500   52.1280 C.3   366  LEU366      0.1596
    201  C         45.5610  105.1300   50.8210 C.2   366  LEU366      0.2287
    202  O         44.4290  105.6560   50.7440 O.2   366  LEU366     -0.2864
    203  CB        45.4950  105.9980   53.1680 C.3   366  LEU366      0.0297
    204  CG        46.1140  106.2060   54.5540 C.3   366  LEU366      0.0022
    205  CD1       45.1260  106.9550   55.4360 C.3   366  LEU366      0.0001
    206  CD2       46.4740  104.8610   55.1790 C.3   366  LEU366      0.0001
@<TRIPOS>BOND
     1   108   107    2
     2   107   106    1
     3   110   109    1
     4   110   111    1
     5   109   106    1
     6   106   105    1
     7   111   112    1
     8   112   113    1
     9   151   149    1
    10   145   146    1
    11   197   196    1
    12   150   149    1
    13   198   196    1
    14   149   146    1
    15   196   195    2
    16   146   147    1
    17   147   148    2
    18    96    95    1
    19    97    95    1
    20   155   154    2
    21   195   194    1
    22    95    94    2
    23   152   153    1
    24   194   193    1
    25   202   201    2
    26   201   200    1
    27   193   192    1
    28    90    89    2
    29   154   153    1
    30   192   189    1
    31   153   156    1
    32    94    93    1
    33   156   157    1
    34   199   200    1
    35   199   190   am
    36   178   177    1
    37   178   179    1
    38    92    91    1
    39    92    93    1
    40   189   190    1
    41   189   188    1
    42    88    89    1
    43    88    91    1
    44    88    87    1
    45    89    98   am
    46   200   203    1
    47   101   100    2
    48   190   191    2
    49   100    99    1
    50   172   171    1
    51   177   174    1
    52   183   182    2
    53   179   173    1
    54    98    99    1
    55    99   102    1
    56   188   182   am
    57   203   204    1
    58   182   181    1
    59   171   170    1
    60   174   173    1
    61   174   175    1
    62   173   167   am
    63    86    84   ar
    64   175   180   am
    65   175   176    2
    66   102   103    1
    67   102   104    1
    68   180   181    1
    69   204   206    1
    70   204   205    1
    71   181   184    1
    72   163   162    1
    73    84    85   ar
    74    84    83    1
    75   170   169    1
    76   166   167    1
    77   166   169    1
    78   166   165    1
    79   167   168    2
    80   164   162    1
    81    82    81    2
    82    83    80    1
    83   184   185    1
    84   162   159    1
    85   185   186    1
    86    81    80    1
    87   159   160    1
    88   159   158    1
    89    80    79    1
    90   160   161    2
    91    79    74   am
    92   187   186    1
    93   125   126    1
    94    46    45    2
    95    74    73    1
    96    74    75    2
    97    42    41    2
    98    76    73    1
    99    76    77    1
   100    70    69    1
   101    73    72    1
   102    71    69    1
   103    45    44    1
   104    45    53   am
   105    68    69    1
   106    68    65    1
   107    44    43    1
   108    44    47    1
   109   126   127    1
   110   126   129    1
   111    41    43   am
   112    41    40    1
   113    54    53    1
   114    54    55    1
   115    54    57    1
   116    67    66    2
   117    49    51   ar
   118    49    48   ar
   119    64    65    1
   120    64    55   am
   121   127   128    2
   122    77    78    1
   123    72    78    1
   124    65    66    1
   125   129   130    1
   126    51    52   ar
   127    40    39    1
   128    55    56    2
   129    47    48    1
   130    57    58    1
   131    48    50   ar
   132    10     9    1
   133    37    36    1
   134   140   142   ar
   135   140   138   ar
   136   117   116    2
   137   137   138    1
   138   137   134    1
   139   118   119    1
   140   118   115    1
   141   142   143   ar
   142    52    50   ar
   143   120   119   ar
   144   120   122   ar
   145   119   121   ar
   146   135   136    2
   147   135   134    1
   148    36    38    1
   149    36    33    1
   150    23    22    1
   151   138   139   ar
   152   122   124   ar
   153   130   132   am
   154   130   131    2
   155    58    59    1
   156   121   123   ar
   157   116   115    1
   158     9    11    1
   159     9     8    2
   160   124   123   ar
   161   134   133    1
   162   115   114    1
   163     7     8    1
   164     7     6    1
   165   143   144    1
   166   143   141   ar
   167    22    20   ar
   168    22    21   ar
   169    20    18   ar
   170    33    34    1
   171    33    32    1
   172    59    60    1
   173   139   141   ar
   174    30    29    1
   175    31    29    1
   176     6     5    1
   177    21    19   ar
   178    34    35    2
   179    18    17   ar
   180    29    28    1
   181    60    61    2
   182    62    61    1
   183     5     2    1
   184    19    17   ar
   185    17    16    1
   186    61    63    1
   187    28    25    1
   188    16    13    1
   189     2     1    1
   190     2     3    1
   191    25    24    1
   192    25    26    1
   193    15    14    2
   194    24    14   am
   195    14    13    1
   196     4     3    2
   197    13    12    1
   198    27    26    2
