@<TRIPOS>MOLECULE
tmp/3d1gA00.pdb
 123 117 0 0 0
SMALL
GASTEIGER

@<TRIPOS>ATOM
      1  N        -37.9040 -112.0920  -30.3370 N.3   152  ARG152     -0.1245
      2  CA       -38.7870 -111.1610  -31.0340 C.3   152  ARG152      0.1563
      3  C        -39.8160 -110.8600  -29.9470 C.2   152  ARG152      0.2260
      4  O        -40.9200 -111.4030  -29.9450 O.2   152  ARG152     -0.2867
      5  CB       -39.4520 -111.8410  -32.2350 C.3   152  ARG152      0.0307
      6  CG       -38.4640 -112.2850  -33.3040 C.3   152  ARG152      0.0489
      7  CD       -39.1490 -113.0140  -34.4590 C.3   152  ARG152      0.2205
      8  NE       -39.9720 -112.1260  -35.2810 N.pl3 152  ARG152     -0.0865
      9  CZ       -40.7050 -112.5430  -36.3080 C.cat 152  ARG152      0.5346
     10  NH1      -40.7150 -113.8300  -36.6230 N.pl3 152  ARG152      0.1354
     11  NH2      -41.4160 -111.6790  -37.0270 N.pl3 152  ARG152      0.1354
     12  N        -41.8950 -108.5820  -29.3220 N.3   154  TYR154     -0.1241
     13  CA       -43.2210 -108.0990  -29.6820 C.3   154  TYR154      0.1605
     14  C        -44.2020 -109.2360  -29.9610 C.2   154  TYR154      0.2264
     15  O        -45.3850 -108.9880  -30.2120 O.2   154  TYR154     -0.2867
     16  CB       -43.1270 -107.1710  -30.8930 C.3   154  TYR154      0.0534
     17  CG       -42.2170 -107.6880  -31.9880 C.ar  154  TYR154     -0.0201
     18  CD1      -42.6500 -108.6730  -32.8760 C.ar  154  TYR154     -0.0009
     19  CD2      -40.9220 -107.1880  -32.1370 C.ar  154  TYR154     -0.0009
     20  CE1      -41.8190 -109.1460  -33.8890 C.ar  154  TYR154      0.0417
     21  CE2      -40.0830 -107.6560  -33.1430 C.ar  154  TYR154      0.0417
     22  CZ       -40.5380 -108.6340  -34.0170 C.ar  154  TYR154      0.1957
     23  OH       -39.7190 -109.1010  -35.0200 O.3   154  TYR154     -0.2866
     24  N        -48.9340 -114.8470  -32.7870 N.3   172  THR172     -0.1218
     25  CA       -48.0280 -115.6830  -33.5520 C.3   172  THR172      0.1862
     26  C        -46.6850 -115.8000  -32.8600 C.2   172  THR172      0.2287
     27  O        -46.3020 -114.9360  -32.0620 O.2   172  THR172     -0.2866
     28  CB       -47.7950 -115.1350  -34.9770 C.3   172  THR172      0.1770
     29  OG1      -47.0160 -116.0800  -35.7170 O.3   172  THR172     -0.2211
     30  CG2      -47.0420 -113.8060  -34.9450 C.3   172  THR172      0.0375
     31  N        -44.1290 -116.7980  -34.9300 N.3   174  GLY174     -0.1210
     32  CA       -43.2870 -116.8290  -36.1120 C.3   174  GLY174      0.1956
     33  C        -43.3680 -118.1110  -36.9270 C.2   174  GLY174      0.2611
     34  O        -42.8890 -118.1520  -38.0640 O.2   174  GLY174     -0.2717
     35  N        -43.9740 -119.1480  -36.3540 N.am  175  HIS175     -0.1975
     36  CA       -44.1010 -120.4430  -37.0190 C.3   175  HIS175      0.1656
     37  C        -45.5560 -120.8120  -37.2830 C.2   175  HIS175      0.2291
     38  O        -45.8540 -121.5470  -38.2200 O.2   175  HIS175     -0.2864
     39  CB       -43.4340 -121.5250  -36.1710 C.3   175  HIS175      0.0771
     40  CG       -41.9940 -121.2480  -35.8780 C.ar  175  HIS175      0.0820
     41  ND1      -41.0260 -121.2250  -36.8580 N.ar  175  HIS175     -0.2267
     42  CD2      -41.3620 -120.9450  -34.7190 C.ar  175  HIS175      0.1154
     43  CE1      -39.8600 -120.9190  -36.3170 C.ar  175  HIS175      0.1986
     44  NE2      -40.0370 -120.7440  -35.0200 N.ar  175  HIS175     -0.2212
     45  N        -49.7490 -119.0110  -36.7200 N.3   177  LEU177     -0.1245
     46  CA       -50.4670 -117.7960  -36.3840 C.3   177  LEU177      0.1561
     47  C        -51.9700 -118.0200  -36.2510 C.2   177  LEU177      0.2260
     48  O        -52.5360 -118.8990  -36.8990 O.2   177  LEU177     -0.2867
     49  CB       -50.1660 -116.7440  -37.4620 C.3   177  LEU177      0.0270
     50  CG       -50.8760 -115.3880  -37.4340 C.3   177  LEU177      0.0019
     51  CD1      -49.9790 -114.3320  -38.0490 C.3   177  LEU177      0.0001
     52  CD2      -52.1870 -115.4840  -38.1970 C.3   177  LEU177      0.0001
     53  N        -46.0770 -105.2860  -34.4690 N.3   241  PHE241     -0.1228
     54  CA       -46.4640 -106.6620  -34.7590 C.3   241  PHE241      0.1721
     55  C        -46.2870 -107.0300  -36.2360 C.2   241  PHE241      0.2437
     56  O        -46.3520 -106.1720  -37.1110 O.2   241  PHE241     -0.2733
     57  CB       -47.9400 -106.8400  -34.3650 C.3   241  PHE241      0.0547
     58  CG       -48.3420 -108.2650  -34.1140 C.ar  241  PHE241     -0.0202
     59  CD1      -48.0220 -108.8830  -32.9130 C.ar  241  PHE241     -0.0042
     60  CD2      -49.0350 -108.9940  -35.0820 C.ar  241  PHE241     -0.0042
     61  CE1      -48.3810 -110.2020  -32.6680 C.ar  241  PHE241     -0.0003
     62  CE2      -49.3970 -110.3160  -34.8460 C.ar  241  PHE241     -0.0003
     63  CZ       -49.0690 -110.9200  -33.6360 C.ar  241  PHE241     -0.0000
     64  N        -46.0560 -108.3200  -36.5280 N.am  242  PRO242     -0.2718
     65  CA       -45.8900 -108.7340  -37.9250 C.3   242  PRO242      0.1535
     66  C        -47.1320 -108.5030  -38.8050 C.2   242  PRO242      0.2598
     67  O        -48.2530 -108.3490  -38.3100 O.2   242  PRO242     -0.2715
     68  CB       -45.4960 -110.2150  -37.8130 C.3   242  PRO242      0.0310
     69  CG       -45.9770 -110.6240  -36.4610 C.3   242  PRO242      0.0237
     70  CD       -45.7010 -109.4150  -35.6110 C.3   242  PRO242      0.0939
     71  N        -46.9020 -108.4630  -40.1120 N.am  243  ASP243     -0.1972
     72  CA       -47.9360 -108.2460  -41.1320 C.3   243  ASP243      0.1709
     73  C        -48.7290 -109.5460  -41.3060 C.2   243  ASP243      0.2293
     74  O        -48.4500 -110.3270  -42.2120 O.2   243  ASP243     -0.2864
     75  CB       -47.2300 -107.8520  -42.4350 C.3   243  ASP243      0.1436
     76  CG       -48.1890 -107.5220  -43.5770 C.2   243  ASP243      0.3671
     77  OD1      -49.4170 -107.6510  -43.4180 O.co2 243  ASP243     -0.2456
     78  OD2      -47.6890 -107.1260  -44.6510 O.co2 243  ASP243     -0.2456
     79  N        -50.2870 -110.6330  -44.7660 N.3   246  ARG246     -0.1231
     80  CA       -49.4300 -111.2640  -45.7620 C.3   246  ARG246      0.1694
     81  C        -49.2610 -112.7450  -45.4430 C.2   246  ARG246      0.2591
     82  O        -49.0090 -113.5620  -46.3290 O.2   246  ARG246     -0.2718
     83  CB       -48.0520 -110.5970  -45.7920 C.3   246  ARG246      0.0321
     84  CG       -47.1310 -111.1480  -46.8750 C.3   246  ARG246      0.0489
     85  CD       -45.7560 -110.4950  -46.8040 C.3   246  ARG246      0.2205
     86  NE       -44.8640 -110.9240  -47.8820 N.pl3 246  ARG246     -0.0865
     87  CZ       -44.1240 -112.0300  -47.8640 C.cat 246  ARG246      0.5346
     88  NH1      -44.1570 -112.8490  -46.8120 N.pl3 246  ARG246      0.1354
     89  NH2      -43.3410 -112.3170  -48.9030 N.pl3 246  ARG246      0.1354
     90  N        -49.3980 -113.0870  -44.1680 N.am  247  VAL247     -0.1980
     91  CA       -49.2580 -114.4700  -43.7340 C.3   247  VAL247      0.1595
     92  C        -50.3760 -115.3590  -44.2670 C.2   247  VAL247      0.2287
     93  O        -50.1350 -116.5150  -44.6070 O.2   247  VAL247     -0.2864
     94  CB       -49.2180 -114.5560  -42.2000 C.3   247  VAL247      0.0276
     95  CG1      -49.3310 -116.0060  -41.7390 C.3   247  VAL247      0.0022
     96  CG2      -47.9170 -113.9520  -41.7000 C.3   247  VAL247      0.0022
     97  N        -45.6100 -124.5940  -48.7810 N.3   345  SER345     -0.1202
     98  CA       -46.4190 -123.4470  -48.3790 C.3   345  SER345      0.2020
     99  C        -47.2080 -123.7620  -47.1140 C.2   345  SER345      0.2619
    100  O        -47.4550 -124.9260  -46.7920 O.2   345  SER345     -0.2717
    101  CB       -47.3920 -123.0710  -49.4980 C.3   345  SER345      0.2103
    102  OG       -46.6980 -122.7030  -50.6760 O.3   345  SER345     -0.2182
    103  N        -47.6060 -122.7210  -46.3960 N.am  346  SER346     -0.1951
    104  CA       -48.3630 -122.9220  -45.1740 C.3   346  SER346      0.1924
    105  C        -49.7710 -123.3890  -45.4800 C.2   346  SER346      0.2314
    106  O        -50.2210 -123.3450  -46.6260 O.2   346  SER346     -0.2863
    107  CB       -48.4310 -121.6250  -44.3760 C.3   346  SER346      0.2116
    108  OG       -47.1470 -121.2400  -43.9320 O.3   346  SER346     -0.2180
    109  N        -52.9030 -120.2360  -39.3930 N.3   360  VAL360     -0.1245
    110  CA       -51.9310 -120.5210  -40.4400 C.3   360  VAL360      0.1561
    111  C        -50.7200 -121.2060  -39.8230 C.2   360  VAL360      0.2260
    112  O        -50.1530 -120.7210  -38.8430 O.2   360  VAL360     -0.2867
    113  CB       -51.4680 -119.2350  -41.1590 C.3   360  VAL360      0.0252
    114  CG1      -50.5590 -119.5990  -42.3270 C.3   360  VAL360      0.0019
    115  CG2      -52.6680 -118.4520  -41.6630 C.3   360  VAL360      0.0019
    116  N        -46.9060 -123.0100  -40.6870 N.3   362  MET362     -0.1245
    117  CA       -45.8230 -123.2350  -41.6330 C.3   362  MET362      0.1570
    118  C        -45.6060 -124.7290  -41.7980 C.2   362  MET362      0.2261
    119  O        -45.8280 -125.5070  -40.8670 O.2   362  MET362     -0.2867
    120  CB       -44.5180 -122.6250  -41.1250 C.3   362  MET362      0.0387
    121  CG       -44.4130 -121.1140  -41.2270 C.3   362  MET362      0.0595
    122  SD       -42.7460 -120.6110  -40.7360 S.3   362  MET362     -0.1393
    123  CE       -42.7870 -118.8760  -41.1290 C.3   362  MET362      0.0692
@<TRIPOS>BOND
     1   102   101    1
     2   101    98    1
     3    89    87    1
     4    97    98    1
     5    98    99    1
     6    86    87    2
     7    86    85    1
     8    87    88    1
     9    99   100    2
    10    99   103   am
    11    84    85    1
    12    84    83    1
    13   106   105    2
    14   103   104    1
    15    82    81    2
    16    83    80    1
    17    80    81    1
    18    80    79    1
    19   105   104    1
    20    81    90   am
    21   104   107    1
    22    78    76   ar
    23    93    92    2
    24   107   108    1
    25    92    91    1
    26    90    91    1
    27    91    94    1
    28    76    77   ar
    29    76    75    1
    30    75    72    1
    31   114   113    1
    32    74    73    2
    33    94    95    1
    34    94    96    1
    35   118   117    1
    36   118   119    2
    37   115   113    1
    38   117   120    1
    39   117   116    1
    40    73    72    1
    41   121   120    1
    42   121   122    1
    43   113   110    1
    44    72    71    1
    45   123   122    1
    46   110   111    1
    47   110   109    1
    48    71    66   am
    49   111   112    2
    50    66    67    2
    51    66    65    1
    52    38    37    2
    53    52    50    1
    54    34    33    2
    55    51    50    1
    56    65    68    1
    57    65    64    1
    58    68    69    1
    59    49    50    1
    60    49    46    1
    61    37    36    1
    62    56    55    2
    63    11     9    1
    64    36    35    1
    65    36    39    1
    66    33    35   am
    67    33    32    1
    68    48    47    2
    69    41    43   ar
    70    41    40   ar
    71    45    46    1
    72    10     9    1
    73    64    55   am
    74    64    70    1
    75    69    70    1
    76    46    47    1
    77    43    44   ar
    78     9     8    2
    79    55    54    1
    80    39    40    1
    81    32    31    1
    82    40    42   ar
    83    29    28    1
    84     8     7    1
    85    60    62   ar
    86    60    58   ar
    87    23    22    1
    88    44    42   ar
    89    28    30    1
    90    28    25    1
    91    62    63   ar
    92    54    53    1
    93    54    57    1
    94     7     6    1
    95    57    58    1
    96    58    59   ar
    97    22    20   ar
    98    22    21   ar
    99    20    18   ar
   100    63    61   ar
   101    25    26    1
   102    25    24    1
   103     6     5    1
   104    21    19   ar
   105    59    61   ar
   106    18    17   ar
   107    26    27    2
   108     5     2    1
   109    19    17   ar
   110    17    16    1
   111     2     1    1
   112     2     3    1
   113    16    13    1
   114    15    14    2
   115    14    13    1
   116     3     4    2
   117    13    12    1
