@<TRIPOS>MOLECULE
tmp/3d1iB01.pdb
 90 91 0 0 0
SMALL
GASTEIGER

@<TRIPOS>ATOM
      1  N         12.1180   53.6810  104.2060 N.3   363  PHE363     -0.1241
      2  CA        13.1560   52.6440  104.3310 C.3   363  PHE363      0.1605
      3  C         13.1550   51.6940  103.1420 C.2   363  PHE363      0.2264
      4  O         14.2070   51.1810  102.7160 O.2   363  PHE363     -0.2867
      5  CB        12.9420   51.8950  105.6560 C.3   363  PHE363      0.0534
      6  CG        14.0490   50.9420  106.0050 C.ar  363  PHE363     -0.0203
      7  CD1       15.3580   51.3830  106.0930 C.ar  363  PHE363     -0.0042
      8  CD2       13.7780   49.6340  106.3140 C.ar  363  PHE363     -0.0042
      9  CE1       16.4100   50.5180  106.4230 C.ar  363  PHE363     -0.0003
     10  CE2       14.8170   48.7640  106.6550 C.ar  363  PHE363     -0.0003
     11  CZ        16.1420   49.2110  106.6830 C.ar  363  PHE363     -0.0000
     12  N         13.6680   50.0540   99.8050 N.3   365  GLY365     -0.1210
     13  CA        14.5130   50.2520   98.6530 C.3   365  GLY365      0.1956
     14  C         15.8210   50.9260   98.9940 C.2   365  GLY365      0.2613
     15  O         16.6930   51.0690   98.1370 O.2   365  GLY365     -0.2717
     16  N         15.9980   51.2950  100.2610 N.am  366  SER366     -0.1938
     17  CA        17.2480   51.8480  100.7280 C.3   366  SER366      0.2055
     18  C         18.3260   50.7760  100.7620 C.2   366  SER366      0.2643
     19  O         18.0530   49.5820  100.7990 O.2   366  SER366     -0.2714
     20  CB        17.0650   52.4440  102.1510 C.3   366  SER366      0.2130
     21  OG        16.8870   51.4100  103.1020 O.3   366  SER366     -0.2179
     22  N         19.5840   51.1900  100.8030 N.am  367  VAL367     -0.1963
     23  CA        20.7060   50.2490  100.8130 C.3   367  VAL367      0.1727
     24  C         20.5890   49.2710  101.9770 C.2   367  VAL367      0.2616
     25  O         20.7850   48.0970  101.8270 O.2   367  VAL367     -0.2715
     26  CB        22.0460   51.0240  100.8900 C.3   367  VAL367      0.0290
     27  CG1       23.2140   50.0540  101.0930 C.3   367  VAL367      0.0023
     28  CG2       22.1780   51.8810   99.6160 C.3   367  VAL367      0.0023
     29  N         20.2340   49.7560  103.1550 N.am  368  HIS368     -0.1973
     30  CA        20.1550   48.8290  104.2800 C.3   368  HIS368      0.1656
     31  C         18.9970   47.8400  104.0880 C.2   368  HIS368      0.2291
     32  O         19.1690   46.6470  104.3410 O.2   368  HIS368     -0.2864
     33  CB        20.0830   49.5650  105.6120 C.3   368  HIS368      0.0771
     34  CG        21.4040   50.1320  106.0490 C.ar  368  HIS368      0.0820
     35  ND1       21.6620   51.4850  106.0230 N.ar  368  HIS368     -0.2267
     36  CD2       22.5450   49.5400  106.5000 C.ar  368  HIS368      0.1154
     37  CE1       22.9020   51.7070  106.4260 C.ar  368  HIS368      0.1986
     38  NE2       23.4620   50.5490  106.7300 N.ar  368  HIS368     -0.2212
     39  N         24.8490   62.8340  106.1880 N.3   426  ILE426     -0.1245
     40  CA        23.5370   62.7220  105.5680 C.3   426  ILE426      0.1561
     41  C         22.5130   63.6400  106.2090 C.2   426  ILE426      0.2260
     42  O         21.7470   64.3310  105.5070 O.2   426  ILE426     -0.2867
     43  CB        23.0260   61.2520  105.6290 C.3   426  ILE426      0.0252
     44  CG1       23.8860   60.3400  104.7820 C.3   426  ILE426      0.0019
     45  CG2       21.4900   61.1740  105.2820 C.3   426  ILE426      0.0019
     46  CD1       23.6950   58.8080  105.1630 C.3   426  ILE426      0.0001
     47  N         18.5130   59.8840  106.8380 N.3   486  PHE486     -0.1227
     48  CA        19.4130   58.7180  106.9780 C.3   486  PHE486      0.1736
     49  C         18.8180   57.4450  106.4210 C.2   486  PHE486      0.2595
     50  O         19.5170   56.6440  105.8070 O.2   486  PHE486     -0.2718
     51  CB        19.8420   58.4850  108.4140 C.3   486  PHE486      0.0547
     52  CG        20.7880   57.3550  108.5460 C.ar  486  PHE486     -0.0202
     53  CD1       22.1360   57.5360  108.3140 C.ar  486  PHE486     -0.0042
     54  CD2       20.3130   56.0770  108.8080 C.ar  486  PHE486     -0.0042
     55  CE1       23.0280   56.4600  108.3780 C.ar  486  PHE486     -0.0003
     56  CE2       21.1720   55.0090  108.8580 C.ar  486  PHE486     -0.0003
     57  CZ        22.5260   55.1980  108.6310 C.ar  486  PHE486     -0.0000
     58  N         17.5260   57.2400  106.6120 N.am  487  HIS487     -0.1961
     59  CA        16.8830   56.0090  106.1470 C.3   487  HIS487      0.1787
     60  C         16.9660   55.8420  104.6330 C.2   487  HIS487      0.2620
     61  O         16.9230   54.7300  104.1480 O.2   487  HIS487     -0.2715
     62  CB        15.4470   55.9040  106.6430 C.3   487  HIS487      0.0785
     63  CG        15.3090   55.7650  108.1310 C.ar  487  HIS487      0.0821
     64  ND1       14.1840   56.1810  108.7820 N.ar  487  HIS487     -0.2267
     65  CD2       16.1100   55.2130  109.0920 C.ar  487  HIS487      0.1154
     66  CE1       14.2810   55.8920  110.0800 C.ar  487  HIS487      0.1986
     67  NE2       15.4530   55.3160  110.3060 N.ar  487  HIS487     -0.2212
     68  N         17.0730   56.9340  103.8870 N.am  488  ASN488     -0.1959
     69  CA        17.0770   56.8470  102.4290 C.3   488  ASN488      0.1804
     70  C         17.6020   58.1390  101.8250 C.2   488  ASN488      0.2463
     71  O         16.8410   58.9850  101.3150 O.2   488  ASN488     -0.2730
     72  CB        15.6940   56.5170  101.8900 C.3   488  ASN488      0.1195
     73  CG        15.7400   55.9210  100.4850 C.2   488  ASN488      0.2630
     74  OD1       16.7070   56.1430   99.7020 O.2   488  ASN488     -0.2716
     75  ND2       14.6800   55.1940  100.1440 N.am  488  ASN488     -0.0877
     76  N         18.9220   58.3430  101.9590 N.am  489  PRO489     -0.2716
     77  CA        19.4890   59.6340  101.6350 C.3   489  PRO489      0.1536
     78  C         19.2540   60.0720  100.1900 C.2   489  PRO489      0.2598
     79  O         18.9620   61.2410   99.9360 O.2   489  PRO489     -0.2715
     80  CB        21.0030   59.4320  101.9310 C.3   489  PRO489      0.0310
     81  CG        21.1880   57.9930  101.8230 C.3   489  PRO489      0.0237
     82  CD        19.9370   57.4110  102.4720 C.3   489  PRO489      0.0939
     83  N         19.3600   59.1420   99.2460 N.am  490  ASP490     -0.1972
     84  CA        19.1970   59.4990   97.8520 C.3   490  ASP490      0.1709
     85  C         17.7720   59.9260   97.5520 C.2   490  ASP490      0.2293
     86  O         17.5560   60.8170   96.7220 O.2   490  ASP490     -0.2864
     87  CB        19.5680   58.3190   96.9330 C.3   490  ASP490      0.1436
     88  CG        21.0500   58.0160   96.9230 C.2   490  ASP490      0.3671
     89  OD1       21.8620   58.8750   97.2070 O.co2 490  ASP490     -0.2456
     90  OD2       21.4170   56.8750   96.6500 O.co2 490  ASP490     -0.2456
@<TRIPOS>BOND
     1    90    88   ar
     2    86    85    2
     3    88    87    1
     4    88    89   ar
     5    87    84    1
     6    85    84    1
     7    84    83    1
     8    15    14    2
     9    13    14    1
    10    13    12    1
    11    14    16   am
    12    83    78   am
    13    28    26    1
    14    74    73    2
    15    79    78    2
    16    75    73   am
    17    78    77    1
    18    16    17    1
    19    73    72    1
    20    17    18    1
    21    17    20    1
    22    18    19    2
    23    18    22   am
    24    22    23    1
    25    23    26    1
    26    23    24    1
    27    26    27    1
    28    71    70    2
    29    77    80    1
    30    77    76    1
    31    81    80    1
    32    81    82    1
    33    70    76   am
    34    70    69    1
    35    25    24    2
    36    72    69    1
    37    76    82    1
    38    24    29   am
    39    20    21    1
    40    69    68    1
    41     4     3    2
    42     3     2    1
    43    29    30    1
    44    68    60   am
    45    31    30    1
    46    31    32    2
    47    61    60    2
    48     1     2    1
    49    30    33    1
    50     2     5    1
    51    60    59    1
    52    44    46    1
    53    44    43    1
    54    45    43    1
    55    42    41    2
    56    40    43    1
    57    40    39    1
    58    40    41    1
    59    33    34    1
    60     5     6    1
    61    50    49    2
    62     6     7   ar
    63     6     8   ar
    64    35    34   ar
    65    35    37   ar
    66    34    36   ar
    67     7     9   ar
    68    59    58    1
    69    59    62    1
    70     8    10   ar
    71    49    58   am
    72    49    48    1
    73     9    11   ar
    74    37    38   ar
    75    36    38   ar
    76    62    63    1
    77    10    11   ar
    78    47    48    1
    79    48    51    1
    80    63    64   ar
    81    63    65   ar
    82    53    55   ar
    83    53    52   ar
    84    55    57   ar
    85    51    52    1
    86    52    54   ar
    87    57    56   ar
    88    64    66   ar
    89    54    56   ar
    90    65    67   ar
    91    66    67   ar
