@<TRIPOS>MOLECULE
tmp/3d1iA04.pdb
 183 176 0 0 0
SMALL
GASTEIGER

@<TRIPOS>ATOM
      1  N         38.5510   34.1160  146.9430 N.3   112  PRO112     -0.2116
      2  CA        37.3350   33.7690  146.2160 C.3   112  PRO112      0.1372
      3  C         37.1460   34.6940  145.0470 C.2   112  PRO112      0.2244
      4  O         37.6390   35.8140  145.0600 O.2   112  PRO112     -0.2868
      5  CB        36.2210   33.9300  147.2340 C.3   112  PRO112      0.0268
      6  CG        36.7560   34.8840  148.2520 C.3   112  PRO112      0.0207
      7  CD        38.2710   34.7420  148.2460 C.3   112  PRO112      0.0892
      8  N         20.5790   35.7590  155.5010 N.3   289  ASN289     -0.1240
      9  CA        21.5990   35.3370  156.4160 C.3   289  ASN289      0.1653
     10  C         21.6900   33.8230  156.4220 C.2   289  ASN289      0.2266
     11  O         22.7680   33.2510  156.4750 O.2   289  ASN289     -0.2867
     12  CB        21.3210   35.8420  157.8350 C.3   289  ASN289      0.1155
     13  CG        21.5270   37.3230  157.9820 C.2   289  ASN289      0.2627
     14  OD1       22.2860   37.9340  157.2290 O.2   289  ASN289     -0.2716
     15  ND2       20.8490   37.9260  158.9790 N.am  289  ASN289     -0.0877
     16  N         22.6950   32.2380  152.8150 N.3   292  CYS292     -0.1235
     17  CA        24.1140   32.3400  152.5180 C.3   292  CYS292      0.1677
     18  C         24.9280   31.4110  153.4010 C.2   292  CYS292      0.2270
     19  O         26.0220   30.9670  153.0230 O.2   292  CYS292     -0.2867
     20  CB        24.6210   33.7540  152.6650 C.3   292  CYS292      0.0956
     21  SG        23.7390   34.9750  151.6430 S.3   292  CYS292     -0.0801
     22  N         28.7870   29.8050  153.5060 N.3   296  HIS296     -0.1241
     23  CA        29.7060   30.7740  154.0760 C.3   296  HIS296      0.1621
     24  C         29.7560   30.6060  155.5910 C.2   296  HIS296      0.2264
     25  O         29.4190   31.5120  156.3600 O.2   296  HIS296     -0.2867
     26  CB        29.3010   32.1910  153.6430 C.3   296  HIS296      0.0745
     27  CG        29.6220   32.4990  152.2080 C.ar  296  HIS296      0.0817
     28  ND1       30.8250   33.0320  151.8280 N.ar  296  HIS296     -0.2268
     29  CD2       28.9180   32.3260  151.0560 C.ar  296  HIS296      0.1154
     30  CE1       30.8380   33.2090  150.5100 C.ar  296  HIS296      0.1986
     31  NE2       29.6910   32.7880  150.0090 N.ar  296  HIS296     -0.2212
     32  N         31.7660   33.5030  157.6810 N.3   359  GLU359     -0.1231
     33  CA        31.0570   34.7770  157.6350 C.3   359  GLU359      0.1699
     34  C         29.7760   34.7750  158.4680 C.2   359  GLU359      0.2592
     35  O         29.4910   35.7340  159.1570 O.2   359  GLU359     -0.2718
     36  CB        30.7470   35.1820  156.2160 C.3   359  GLU359      0.0402
     37  CG        31.9570   35.6750  155.4050 C.3   359  GLU359      0.1161
     38  CD        32.8050   34.5730  154.8030 C.2   359  GLU359      0.3649
     39  OE1       32.2640   33.6700  154.1250 O.co2 359  GLU359     -0.2457
     40  OE2       34.0540   34.6470  154.9590 O.co2 359  GLU359     -0.2457
     41  N         28.9910   33.7090  158.3860 N.am  360  ALA360     -0.1980
     42  CA        27.6710   33.6940  159.0460 C.3   360  ALA360      0.1597
     43  C         27.8400   33.8420  160.5660 C.2   360  ALA360      0.2287
     44  O         27.1870   34.6530  161.2510 O.2   360  ALA360     -0.2864
     45  CB        26.9520   32.3820  158.7170 C.3   360  ALA360      0.0319
     46  N         29.1340   37.2860  161.5790 N.3   363  PHE363     -0.1241
     47  CA        28.1570   38.3440  161.4700 C.3   363  PHE363      0.1605
     48  C         27.2210   38.3700  162.6880 C.2   363  PHE363      0.2264
     49  O         26.7460   39.4390  163.1040 O.2   363  PHE363     -0.2867
     50  CB        27.3590   38.1380  160.1780 C.3   363  PHE363      0.0534
     51  CG        26.4080   39.2450  159.8630 C.ar  363  PHE363     -0.0203
     52  CD1       26.8550   40.5170  159.7090 C.ar  363  PHE363     -0.0042
     53  CD2       25.0650   38.9820  159.6230 C.ar  363  PHE363     -0.0042
     54  CE1       25.9570   41.5610  159.3710 C.ar  363  PHE363     -0.0003
     55  CE2       24.1730   40.0090  159.2840 C.ar  363  PHE363     -0.0003
     56  CZ        24.6160   41.2800  159.1730 C.ar  363  PHE363     -0.0000
     57  N         25.3360   45.4280  162.6430 N.3   368  HIS368     -0.1241
     58  CA        24.3850   45.2980  161.5620 C.3   368  HIS368      0.1621
     59  C         23.4130   44.1450  161.7920 C.2   368  HIS368      0.2264
     60  O         22.2400   44.2930  161.5690 O.2   368  HIS368     -0.2867
     61  CB        25.0800   45.2000  160.1930 C.3   368  HIS368      0.0745
     62  CG        25.6670   46.4960  159.7370 C.ar  368  HIS368      0.0817
     63  ND1       27.0210   46.7240  159.7380 N.ar  368  HIS368     -0.2268
     64  CD2       25.0860   47.6510  159.3240 C.ar  368  HIS368      0.1154
     65  CE1       27.2480   47.9620  159.3130 C.ar  368  HIS368      0.1986
     66  NE2       26.0920   48.5500  159.0660 N.ar  368  HIS368     -0.2212
     67  N         19.8790   43.8040  159.6690 N.3   373  VAL373     -0.1231
     68  CA        20.5100   43.8340  158.3430 C.3   373  VAL373      0.1692
     69  C         20.9570   42.4120  158.0040 C.2   373  VAL373      0.2592
     70  O         21.3080   41.6320  158.9000 O.2   373  VAL373     -0.2718
     71  CB        21.6810   44.8140  158.3230 C.3   373  VAL373      0.0266
     72  CG1       22.2820   44.9950  156.8860 C.3   373  VAL373      0.0020
     73  CG2       21.2490   46.1770  158.8750 C.3   373  VAL373      0.0020
     74  N         20.9430   42.0590  156.7120 N.am  374  ALA374     -0.1966
     75  CA        21.2610   40.6750  156.2960 C.3   374  ALA374      0.1728
     76  C         22.2430   40.7220  155.1270 C.2   374  ALA374      0.2616
     77  O         22.4260   41.7830  154.5260 O.2   374  ALA374     -0.2715
     78  CB        19.9860   39.9340  155.8910 C.3   374  ALA374      0.0334
     79  N         22.8610   39.5830  154.8130 N.am  375  CYS375     -0.1968
     80  CA        23.9120   39.5600  153.8170 C.3   375  CYS375      0.1712
     81  C         23.4650   40.2570  152.5460 C.2   375  CYS375      0.2296
     82  O         24.2520   40.9560  151.9100 O.2   375  CYS375     -0.2864
     83  CB        24.3180   38.1440  153.4370 C.3   375  CYS375      0.0983
     84  SG        24.5160   36.9160  154.7130 S.3   375  CYS375     -0.0798
     85  N         23.7800   44.1150  151.7610 N.3   378  CYS378     -0.1221
     86  CA        25.0610   44.6540  151.3620 C.3   378  CYS378      0.1808
     87  C         25.6470   44.0190  150.1100 C.2   378  CYS378      0.2601
     88  O         26.4730   44.6220  149.4740 O.2   378  CYS378     -0.2717
     89  CB        26.0590   44.5490  152.4880 C.3   378  CYS378      0.0970
     90  SG        25.4950   45.4990  153.9470 S.3   378  CYS378     -0.0800
     91  N         25.2440   42.7810  149.7950 N.am  379  HIS379     -0.1975
     92  CA        25.8920   42.0050  148.7690 C.3   379  HIS379      0.1656
     93  C         24.9960   41.6100  147.6000 C.2   379  HIS379      0.2291
     94  O         25.5290   41.1910  146.5750 O.2   379  HIS379     -0.2864
     95  CB        26.4830   40.7300  149.3970 C.3   379  HIS379      0.0771
     96  CG        27.6540   40.9870  150.3130 C.ar  379  HIS379      0.0820
     97  ND1       28.8620   41.5040  149.8810 N.ar  379  HIS379     -0.2267
     98  CD2       27.8010   40.7600  151.6440 C.ar  379  HIS379      0.1154
     99  CE1       29.7040   41.5630  150.9150 C.ar  379  HIS379      0.1986
    100  NE2       29.0780   41.1360  152.0040 N.ar  379  HIS379     -0.2212
    101  N         31.1350   42.4490  146.4430 N.3   398  THR398     -0.1204
    102  CA        31.4060   43.5300  147.3810 C.3   398  THR398      0.1979
    103  C         30.4550   44.7310  147.1990 C.2   398  THR398      0.2460
    104  O         30.1460   45.1100  146.0630 O.2   398  THR398     -0.2732
    105  CB        32.8650   44.0560  147.2810 C.3   398  THR398      0.1783
    106  OG1       32.9700   45.2270  148.1220 O.3   398  THR398     -0.2211
    107  CG2       33.2970   44.3740  145.8460 C.3   398  THR398      0.0376
    108  N         30.0000   45.3270  148.3200 N.am  399  PRO399     -0.2717
    109  CA        29.1880   46.5320  148.2110 C.3   399  PRO399      0.1535
    110  C         29.8990   47.6860  147.5570 C.2   399  PRO399      0.2598
    111  O         29.2460   48.6730  147.2130 O.2   399  PRO399     -0.2715
    112  CB        28.8780   46.8880  149.6630 C.3   399  PRO399      0.0310
    113  CG        29.9790   46.2400  150.4870 C.3   399  PRO399      0.0237
    114  CD        30.2110   44.9500  149.7320 C.3   399  PRO399      0.0939
    115  N         31.2160   47.5920  147.3820 N.am  400  ARG400     -0.1978
    116  CA        31.9390   48.7340  146.7770 C.3   400  ARG400      0.1597
    117  C         31.4100   49.0090  145.3830 C.2   400  ARG400      0.2287
    118  O         31.5520   50.1450  144.8520 O.2   400  ARG400     -0.2864
    119  CB        33.4200   48.4580  146.6990 C.3   400  ARG400      0.0334
    120  CG        34.0970   48.5100  148.0440 C.3   400  ARG400      0.0492
    121  CD        35.6320   48.5660  147.9310 C.3   400  ARG400      0.2205
    122  NE        36.2240   48.1260  149.1830 N.pl3 400  ARG400     -0.0865
    123  CZ        36.9120   48.8950  150.0200 C.cat 400  ARG400      0.5346
    124  NH1       37.1840   50.1640  149.7440 N.pl3 400  ARG400      0.1354
    125  NH2       37.3280   48.3850  151.1560 N.pl3 400  ARG400      0.1354
    126  N         24.7840   50.6390  150.9360 N.3   407  CYS407     -0.1235
    127  CA        25.1530   51.3430  152.1660 C.3   407  CYS407      0.1677
    128  C         24.4770   52.6740  152.3340 C.2   407  CYS407      0.2270
    129  O         24.0470   53.0250  153.4340 O.2   407  CYS407     -0.2867
    130  CB        26.6730   51.6360  152.2500 C.3   407  CYS407      0.0956
    131  SG        27.7770   50.3120  152.0080 S.3   407  CYS407     -0.0801
    132  N         34.8830   51.5280  155.9980 N.3   423  ILE423     -0.1245
    133  CA        35.1840   50.1250  155.7610 C.3   423  ILE423      0.1561
    134  C         36.6800   49.9390  155.8670 C.2   423  ILE423      0.2260
    135  O         37.1580   49.0320  156.5610 O.2   423  ILE423     -0.2867
    136  CB        34.7690   49.6500  154.3130 C.3   423  ILE423      0.0252
    137  CG1       33.2650   49.7740  154.0730 C.3   423  ILE423      0.0019
    138  CG2       35.2890   48.2190  154.0310 C.3   423  ILE423      0.0019
    139  CD1       32.8790   49.5790  152.5750 C.3   423  ILE423      0.0001
    140  N         39.1430   47.4030  158.0760 N.3   427  LYS427     -0.1245
    141  CA        39.9270   46.3890  157.4060 C.3   427  LYS427      0.1561
    142  C         41.4150   46.6060  157.6230 C.2   427  LYS427      0.2260
    143  O         42.1790   45.6550  157.7920 O.2   427  LYS427     -0.2867
    144  CB        39.6490   46.3660  155.9060 C.3   427  LYS427      0.0271
    145  CG        38.2140   46.0390  155.5210 C.3   427  LYS427      0.0035
    146  CD        38.0820   45.8020  154.0170 C.3   427  LYS427      0.0206
    147  CE        38.4490   44.3990  153.6080 C.3   427  LYS427      0.1093
    148  NZ        38.4580   44.2960  152.1010 N.3   427  LYS427     -0.1314
    149  N         36.1130   36.4660  155.2450 N.3   482  ASN482     -0.1225
    150  CA        36.4060   37.2860  154.0810 C.3   482  ASN482      0.1785
    151  C         36.2830   38.7840  154.1910 C.2   482  ASN482      0.2597
    152  O         36.7000   39.4900  153.2660 O.2   482  ASN482     -0.2718
    153  CB        35.5840   36.7740  152.8930 C.3   482  ASN482      0.1169
    154  CG        36.2140   35.5270  152.2530 C.2   482  ASN482      0.2627
    155  OD1       37.1320   35.6440  151.4320 O.2   482  ASN482     -0.2716
    156  ND2       35.7640   34.3450  152.6760 N.am  482  ASN482     -0.0877
    157  N         35.7540   39.2820  155.2980 N.am  483  SER483     -0.1952
    158  CA        35.4380   40.7180  155.4490 C.3   483  SER483      0.1924
    159  C         36.6200   41.5300  156.0380 C.2   483  SER483      0.2314
    160  O         36.5530   42.7260  156.1840 O.2   483  SER483     -0.2863
    161  CB        34.2310   40.8990  156.3220 C.3   483  SER483      0.2116
    162  OG        34.4840   40.6010  157.6670 O.3   483  SER483     -0.2180
    163  N         35.3360   43.5400  158.8790 N.3   486  PHE486     -0.1227
    164  CA        34.1770   44.4170  158.7280 C.3   486  PHE486      0.1736
    165  C         32.8920   43.8130  159.2860 C.2   486  PHE486      0.2595
    166  O         32.0560   44.5320  159.8350 O.2   486  PHE486     -0.2718
    167  CB        33.9360   44.8220  157.2660 C.3   486  PHE486      0.0547
    168  CG        32.8100   45.7940  157.1290 C.ar  486  PHE486     -0.0202
    169  CD1       33.0250   47.1370  157.3420 C.ar  486  PHE486     -0.0042
    170  CD2       31.5110   45.3570  156.9100 C.ar  486  PHE486     -0.0042
    171  CE1       31.9920   48.0540  157.2860 C.ar  486  PHE486     -0.0003
    172  CE2       30.4600   46.2870  156.8740 C.ar  486  PHE486     -0.0003
    173  CZ        30.7160   47.6260  157.0910 C.ar  486  PHE486     -0.0000
    174  N         32.6980   42.5120  159.1280 N.am  487  HIS487     -0.1975
    175  CA        31.4390   41.8980  159.5810 C.3   487  HIS487      0.1656
    176  C         31.2770   41.9720  161.1170 C.2   487  HIS487      0.2291
    177  O         30.1580   41.9000  161.6280 O.2   487  HIS487     -0.2864
    178  CB        31.3190   40.4590  159.1130 C.3   487  HIS487      0.0771
    179  CG        31.1430   40.2890  157.6260 C.ar  487  HIS487      0.0820
    180  ND1       31.5420   39.1410  156.9720 N.ar  487  HIS487     -0.2267
    181  CD2       30.6020   41.0920  156.6710 C.ar  487  HIS487      0.1154
    182  CE1       31.2480   39.2450  155.6770 C.ar  487  HIS487      0.1986
    183  NE2       30.6710   40.4170  155.4660 N.ar  487  HIS487     -0.2212
@<TRIPOS>BOND
     1   118   117    2
     2     3     4    2
     3     3     2    1
     4   117   116    1
     5   107   105    1
     6   104   103    2
     7     2     1    1
     8     2     5    1
     9   101   102    1
    10    94    93    2
    11   119   116    1
    12   119   120    1
    13   116   115    1
    14     1     7    1
    15   103   102    1
    16   103   108   am
    17   111   110    2
    18     5     6    1
    19   105   102    1
    20   105   106    1
    21   115   110   am
    22   110   109    1
    23    93    92    1
    24   121   120    1
    25   121   122    1
    26   109   108    1
    27   109   112    1
    28     7     6    1
    29   108   114    1
    30    92    95    1
    31    92    91    1
    32   122   123    2
    33    95    96    1
    34    88    87    2
    35   112   113    1
    36   114   113    1
    37   124   123    1
    38    91    87   am
    39    97    96   ar
    40    97    99   ar
    41    31    30   ar
    42    31    29   ar
    43   123   125    1
    44    87    86    1
    45    96    98   ar
    46    30    28   ar
    47    99   100   ar
    48   126   127    1
    49    29    27   ar
    50    86    85    1
    51    86    89    1
    52   155   154    2
    53    21    20    1
    54    98   100   ar
    55    28    27   ar
    56    82    81    2
    57   131   130    1
    58   148   147    1
    59   127   130    1
    60   127   128    1
    61    27    26    1
    62   154   156   am
    63   154   153    1
    64   128   129    2
    65    89    90    1
    66    17    20    1
    67    17    16    1
    68    17    18    1
    69    81    80    1
    70   139   137    1
    71   153   150    1
    72    19    18    2
    73   152   151    2
    74    83    80    1
    75    83    84    1
    76    22    23    1
    77   147   146    1
    78    26    23    1
    79    80    79    1
    80   146   145    1
    81   138   136    1
    82   137   136    1
    83    23    24    1
    84   150   151    1
    85   150   149    1
    86    39    38   ar
    87   151   157   am
    88   136   133    1
    89    77    76    2
    90    38    40   ar
    91    38    37    1
    92    79    76   am
    93    76    75    1
    94   157   158    1
    95    37    36    1
    96   158   159    1
    97   158   161    1
    98   183   182   ar
    99   183   181   ar
   100     8     9    1
   101   145   144    1
   102    24    25    2
   103   182   180   ar
   104   133   134    1
   105   133   132    1
   106   134   135    2
   107    78    75    1
   108   144   141    1
   109   159   160    2
   110    36    33    1
   111    75    74    1
   112   161   162    1
   113     9    10    1
   114     9    12    1
   115    10    11    2
   116   181   179   ar
   117    74    69   am
   118   172   170   ar
   119   172   173   ar
   120    72    71    1
   121   170   168   ar
   122   180   179   ar
   123   173   171   ar
   124   168   167    1
   125   168   169   ar
   126    14    13    2
   127   167   164    1
   128   171   169   ar
   129   141   142    1
   130   141   140    1
   131   142   143    2
   132   179   178    1
   133    33    32    1
   134    33    34    1
   135    12    13    1
   136    13    15   am
   137    69    68    1
   138    69    70    2
   139    71    68    1
   140    71    73    1
   141    68    67    1
   142    41    34   am
   143    41    42    1
   144    34    35    2
   145    45    42    1
   146   164   163    1
   147   164   165    1
   148    42    43    1
   149    66    65   ar
   150    66    64   ar
   151   178   175    1
   152   174   165   am
   153   174   175    1
   154    56    55   ar
   155    56    54   ar
   156    55    53   ar
   157   165   166    2
   158    65    63   ar
   159    64    62   ar
   160    54    52   ar
   161   175   176    1
   162    53    51   ar
   163    52    51   ar
   164    62    63   ar
   165    62    61    1
   166    51    50    1
   167    50    47    1
   168    61    58    1
   169    43    44    2
   170   176   177    2
   171    47    46    1
   172    47    48    1
   173    58    59    1
   174    58    57    1
   175    60    59    2
   176    48    49    2
