@<TRIPOS>MOLECULE
tmp/3d1iA09.pdb
 111 107 0 0 0
SMALL
GASTEIGER

@<TRIPOS>ATOM
      1  N         40.9500   13.9530  163.0150 N.3   305  TYR305     -0.1227
      2  CA        41.4230   13.1350  164.1380 C.3   305  TYR305      0.1736
      3  C         40.6930   13.5020  165.3670 C.2   305  TYR305      0.2595
      4  O         40.1430   14.6000  165.4690 O.2   305  TYR305     -0.2718
      5  CB        42.9110   13.4020  164.3760 C.3   305  TYR305      0.0548
      6  CG        43.7460   13.1570  163.1550 C.ar  305  TYR305     -0.0200
      7  CD1       44.2580   11.8950  162.8850 C.ar  305  TYR305     -0.0009
      8  CD2       43.9840   14.1860  162.2260 C.ar  305  TYR305     -0.0009
      9  CE1       44.9650   11.6530  161.7280 C.ar  305  TYR305      0.0417
     10  CE2       44.7000   13.9490  161.0800 C.ar  305  TYR305      0.0417
     11  CZ        45.2000   12.6830  160.8480 C.ar  305  TYR305      0.1957
     12  OH        45.9310   12.4420  159.7260 O.3   305  TYR305     -0.2866
     13  N         40.6930   12.5870  166.3480 N.am  306  GLN306     -0.1965
     14  CA        40.1020   12.8840  167.6500 C.3   306  GLN306      0.1733
     15  C         41.0630   13.5780  168.5700 C.2   306  GLN306      0.2616
     16  O         42.2480   13.2080  168.6670 O.2   306  GLN306     -0.2715
     17  CB        39.5730   11.5920  168.2840 C.3   306  GLN306      0.0408
     18  CG        38.5000   10.9430  167.4540 C.3   306  GLN306      0.0908
     19  CD        37.6290   10.0230  168.2500 C.2   306  GLN306      0.2608
     20  OE1       36.4120    9.9540  168.0240 O.2   306  GLN306     -0.2717
     21  NE2       38.2480    9.2740  169.1930 N.am  306  GLN306     -0.0878
     22  N         40.5600   14.6080  169.2380 N.am  307  LEU307     -0.1963
     23  CA        41.3210   15.3540  170.2370 C.3   307  LEU307      0.1728
     24  C         41.6520   14.3890  171.3840 C.2   307  LEU307      0.2617
     25  O         42.7440   14.4310  171.9370 O.2   307  LEU307     -0.2715
     26  CB        40.4880   16.5200  170.7700 C.3   307  LEU307      0.0311
     27  CG        40.4570   17.7720  169.8720 C.3   307  LEU307      0.0022
     28  CD1       39.3130   18.7330  170.2650 C.3   307  LEU307      0.0001
     29  CD2       41.8070   18.4220  169.8520 C.3   307  LEU307      0.0001
     30  N         40.7220   13.4950  171.6830 N.am  308  SER308     -0.1936
     31  CA        40.8630   12.6180  172.8610 C.3   308  SER308      0.2055
     32  C         42.0430   11.6530  172.7360 C.2   308  SER308      0.2643
     33  O         42.8470   11.5260  173.6540 O.2   308  SER308     -0.2714
     34  CB        39.5750   11.8460  173.0490 C.3   308  SER308      0.2130
     35  OG        39.3530   11.0170  171.9230 O.3   308  SER308     -0.2179
     36  N         42.1680   10.9820  171.6040 N.am  309  ASP309     -0.1957
     37  CA        43.1520    9.9340  171.4490 C.3   309  ASP309      0.1840
     38  C         43.9060    9.9740  170.1520 C.2   309  ASP309      0.2622
     39  O         44.6890    9.0860  169.8500 O.2   309  ASP309     -0.2715
     40  CB        42.4610    8.5870  171.6400 C.3   309  ASP309      0.1450
     41  CG        41.5600    8.1970  170.4690 C.2   309  ASP309      0.3671
     42  OD1       41.2300    9.0370  169.6090 O.co2 309  ASP309     -0.2456
     43  OD2       41.1640    7.0220  170.3980 O.co2 309  ASP309     -0.2456
     44  N         43.6950   11.0100  169.3370 N.am  310  GLY310     -0.1954
     45  CA        44.4490   11.1150  168.0970 C.3   310  GLY310      0.1869
     46  C         43.9940   10.1970  166.9880 C.2   310  GLY310      0.2309
     47  O         44.5950   10.2090  165.9310 O.2   310  GLY310     -0.2863
     48  N         39.8190   17.3360  165.6430 N.3   341  PHE341     -0.1241
     49  CA        40.7020   18.3650  165.0700 C.3   341  PHE341      0.1605
     50  C         41.0940   17.9940  163.6650 C.2   341  PHE341      0.2264
     51  O         40.8600   16.8820  163.2070 O.2   341  PHE341     -0.2867
     52  CB        41.9230   18.6620  165.9480 C.3   341  PHE341      0.0534
     53  CG        42.9460   17.5810  165.9750 C.ar  341  PHE341     -0.0203
     54  CD1       42.8540   16.5550  166.9110 C.ar  341  PHE341     -0.0042
     55  CD2       44.0330   17.6000  165.1050 C.ar  341  PHE341     -0.0042
     56  CE1       43.8620   15.5850  166.9950 C.ar  341  PHE341     -0.0003
     57  CE2       45.0210   16.6630  165.1670 C.ar  341  PHE341     -0.0003
     58  CZ        44.9230   15.6020  166.1310 C.ar  341  PHE341     -0.0000
     59  N         47.7420   17.9670  162.3680 N.3   344  ARG344     -0.1245
     60  CA        48.8510   18.2210  163.2790 C.3   344  ARG344      0.1563
     61  C         49.8400   19.1080  162.5390 C.2   344  ARG344      0.2260
     62  O         50.2810   18.7930  161.4400 O.2   344  ARG344     -0.2867
     63  CB        49.5850   16.9330  163.7020 C.3   344  ARG344      0.0307
     64  CG        48.7690   16.0270  164.5920 C.3   344  ARG344      0.0489
     65  CD        49.4920   14.6940  164.8730 C.3   344  ARG344      0.2205
     66  NE        48.6460   13.7780  165.6450 N.pl3 344  ARG344     -0.0865
     67  CZ        47.6270   13.0770  165.1450 C.cat 344  ARG344      0.5346
     68  NH1       47.2690   13.1910  163.8710 N.pl3 344  ARG344      0.1354
     69  NH2       46.9180   12.2830  165.9350 N.pl3 344  ARG344      0.1354
     70  N         53.9320   20.0230  165.9260 N.3   349  GLY349     -0.1210
     71  CA        53.1730   18.8420  166.3100 C.3   349  GLY349      0.1956
     72  C         51.8680   19.0870  167.0090 C.2   349  GLY349      0.2612
     73  O         51.2220   18.1330  167.4560 O.2   349  GLY349     -0.2717
     74  N         51.4310   20.3460  167.1300 N.am  350  ALA350     -0.1965
     75  CA        50.1940   20.6270  167.8030 C.3   350  ALA350      0.1728
     76  C         49.0090   20.1260  166.9690 C.2   350  ALA350      0.2616
     77  O         49.0200   20.2250  165.7260 O.2   350  ALA350     -0.2715
     78  CB        50.0540   22.1490  168.0680 C.3   350  ALA350      0.0334
     79  N         48.0190   19.5660  167.6510 N.am  351  ALA351     -0.1977
     80  CA        46.7140   19.3110  167.0630 C.3   351  ALA351      0.1597
     81  C         46.0940   20.6880  166.8190 C.2   351  ALA351      0.2287
     82  O         45.9950   21.4800  167.7340 O.2   351  ALA351     -0.2864
     83  CB        45.8410   18.5580  168.0510 C.3   351  ALA351      0.0319
     84  N         54.1920   20.0540  174.9860 N.3   462  ASN462     -0.1240
     85  CA        52.7620   19.8800  174.9750 C.3   462  ASN462      0.1653
     86  C         52.0340   21.0820  175.5320 C.2   462  ASN462      0.2266
     87  O         50.9710   21.4180  175.0570 O.2   462  ASN462     -0.2867
     88  CB        52.3340   18.6070  175.7020 C.3   462  ASN462      0.1155
     89  CG        52.6330   17.3740  174.9260 C.2   462  ASN462      0.2627
     90  OD1       52.9340   16.3140  175.5210 O.2   462  ASN462     -0.2716
     91  ND2       52.5610   17.4510  173.5960 N.am  462  ASN462     -0.0877
     92  N         52.0210   23.3280  172.7360 N.3   465  ARG465     -0.1231
     93  CA        51.0840   22.8470  171.7210 C.3   465  ARG465      0.1694
     94  C         49.6420   23.2100  172.0710 C.2   465  ARG465      0.2591
     95  O         48.8500   23.5600  171.1730 O.2   465  ARG465     -0.2718
     96  CB        51.2300   21.3450  171.4800 C.3   465  ARG465      0.0321
     97  CG        52.4930   20.9920  170.7790 C.3   465  ARG465      0.0489
     98  CD        52.7910   19.5130  170.8750 C.3   465  ARG465      0.2205
     99  NE        54.0440   19.2220  170.2010 N.pl3 465  ARG465     -0.0865
    100  CZ        54.9590   18.3500  170.6120 C.cat 465  ARG465      0.5346
    101  NH1       54.8000   17.6470  171.7270 N.pl3 465  ARG465      0.1354
    102  NH2       56.0500   18.1960  169.9020 N.pl3 465  ARG465      0.1354
    103  N         49.2910   23.1760  173.3560 N.am  466  GLU466     -0.1979
    104  CA        47.9530   23.5530  173.7550 C.3   466  GLU466      0.1602
    105  C         47.7360   25.0390  173.4920 C.2   466  GLU466      0.2287
    106  O         46.6520   25.4270  173.0920 O.2   466  GLU466     -0.2864
    107  CB        47.6900   23.2680  175.2280 C.3   466  GLU466      0.0415
    108  CG        47.7300   21.8120  175.5300 C.3   466  GLU466      0.1163
    109  CD        46.5150   21.1130  174.9820 C.2   466  GLU466      0.3649
    110  OE1       46.5360   19.8620  174.9130 O.co2 466  GLU466     -0.2457
    111  OE2       45.5370   21.8260  174.6070 O.co2 466  GLU466     -0.2457
@<TRIPOS>BOND
     1    12    11    1
     2    11    10   ar
     3    11     9   ar
     4    10     8   ar
     5    62    61    2
     6     9     7   ar
     7     8     6   ar
     8    59    60    1
     9    61    60    1
    10     7     6   ar
    11     1     2    1
    12     6     5    1
    13    51    50    2
    14    60    63    1
    15    50    49    1
    16    63    64    1
    17    68    67    1
    18     2     5    1
    19     2     3    1
    20    64    65    1
    21    65    66    1
    22    49    48    1
    23    49    52    1
    24    55    57   ar
    25    55    53   ar
    26    67    66    2
    27    67    69    1
    28    57    58   ar
    29     3     4    2
    30     3    13   am
    31    77    76    2
    32    70    71    1
    33    47    46    2
    34    52    53    1
    35    53    54   ar
    36    58    56   ar
    37    71    72    1
    38    13    14    1
    39    81    80    1
    40    81    82    2
    41    54    56   ar
    42    76    79   am
    43    76    75    1
    44    46    45    1
    45    72    74   am
    46    72    73    2
    47    80    79    1
    48    80    83    1
    49    74    75    1
    50    18    19    1
    51    18    17    1
    52    14    17    1
    53    14    15    1
    54    75    78    1
    55    20    19    2
    56    45    44    1
    57    19    21   am
    58    15    16    2
    59    15    22   am
    60    22    23    1
    61    44    38   am
    62    42    41   ar
    63    39    38    2
    64    29    27    1
    65    27    28    1
    66    27    26    1
    67   102   100    1
    68    38    37    1
    69    99   100    2
    70    99    98    1
    71    23    26    1
    72    23    24    1
    73    43    41   ar
    74    41    40    1
    75   100   101    1
    76    97    98    1
    77    97    96    1
    78    95    94    2
    79    24    30   am
    80    24    25    2
    81    37    36    1
    82    37    40    1
    83    96    93    1
    84    36    32   am
    85    30    31    1
    86    93    94    1
    87    93    92    1
    88    35    34    1
    89    94   103   am
    90    32    31    1
    91    32    33    2
    92    31    34    1
    93   106   105    2
    94   103   104    1
    95   105   104    1
    96    91    89   am
    97   104   107    1
    98   111   109   ar
    99   110   109   ar
   100    89    90    2
   101    89    88    1
   102    85    84    1
   103    85    86    1
   104    85    88    1
   105   109   108    1
   106    87    86    2
   107   107   108    1
