@<TRIPOS>MOLECULE
tmp/3d1rA00.pdb
 142 133 0 0 0
SMALL
GASTEIGER

@<TRIPOS>ATOM
      1  N         10.6900   33.8160   14.3710 N.3    29  LYS29      -0.1245
      2  CA         9.5150   33.2410   15.0030 C.3    29  LYS29       0.1561
      3  C          9.5780   31.7120   15.0670 C.2    29  LYS29       0.2260
      4  O          9.1560   31.1180   16.0670 O.2    29  LYS29      -0.2867
      5  CB         8.2050   33.8160   14.4360 C.3    29  LYS29       0.0271
      6  CG         7.7910   33.4220   13.0560 C.3    29  LYS29       0.0035
      7  CD         6.6230   34.3670   12.6710 C.3    29  LYS29       0.0206
      8  CE         5.9340   34.0160   11.3520 C.3    29  LYS29       0.1093
      9  NZ         4.6880   34.8890   11.1960 N.3    29  LYS29      -0.1314
     10  N          3.7570   28.4420   21.9510 N.3    87  ILE87      -0.1231
     11  CA         3.6430   29.9030   21.9910 C.3    87  ILE87       0.1692
     12  C          2.4160   30.3610   21.2210 C.2    87  ILE87       0.2592
     13  O          2.3180   30.0900   20.0090 O.2    87  ILE87      -0.2718
     14  CB         4.8600   30.6420   21.3740 C.3    87  ILE87       0.0266
     15  CG1        6.1640   30.2710   22.0960 C.3    87  ILE87       0.0019
     16  CG2        4.6220   32.2080   21.4540 C.3    87  ILE87       0.0020
     17  CD1        7.4240   30.9450   21.4440 C.3    87  ILE87       0.0001
     18  N          1.5230   31.0770   21.8930 N.am   88  GLU88      -0.1966
     19  CA         0.4460   31.8530   21.2370 C.3    88  GLU88       0.1733
     20  C          0.9950   33.2570   21.1060 C.2    88  GLU88       0.2617
     21  O          1.2280   33.9250   22.1090 O.2    88  GLU88      -0.2715
     22  CB        -0.8380   31.8840   22.0930 C.3    88  GLU88       0.0429
     23  CG        -1.9360   30.9200   21.6470 C.3    88  GLU88       0.1163
     24  CD        -2.6140   31.4030   20.3810 C.2    88  GLU88       0.3649
     25  OE1       -2.2380   30.9250   19.2730 O.co2  88  GLU88      -0.2457
     26  OE2       -3.5210   32.2630   20.5170 O.co2  88  GLU88      -0.2457
     27  N          1.2820   33.6850   19.8830 N.am   89  GLY89      -0.1940
     28  CA         1.9460   34.9830   19.6590 C.3    89  GLY89       0.2014
     29  C          3.4000   34.8020   19.2400 C.2    89  GLY89       0.2640
     30  O          4.2710   35.4380   19.8070 O.2    89  GLY89      -0.2714
     31  N          3.6530   33.9350   18.2550 N.am   90  THR90      -0.1936
     32  CA         5.0410   33.6760   17.8270 C.3    90  THR90       0.2028
     33  C          5.6480   34.9100   17.1610 C.2    90  THR90       0.2642
     34  O          6.7800   35.2740   17.4350 O.2    90  THR90      -0.2714
     35  CB         5.1820   32.4840   16.9000 C.3    90  THR90       0.1808
     36  OG1        4.3910   32.6830   15.7110 O.3    90  THR90      -0.2208
     37  CG2        4.7090   31.2130   17.6280 C.3    90  THR90       0.0379
     38  N          4.9010   35.5220   16.2620 N.am   91  ARG91      -0.1963
     39  CA         5.3820   36.7750   15.6490 C.3    91  ARG91       0.1729
     40  C          5.5880   37.8300   16.7420 C.2    91  ARG91       0.2616
     41  O          6.6110   38.5400   16.7610 O.2    91  ARG91      -0.2715
     42  CB         4.3910   37.3050   14.6280 C.3    91  ARG91       0.0348
     43  CG         4.7730   38.7350   14.1070 C.3    91  ARG91       0.0492
     44  CD         3.6430   39.4180   13.3090 C.3    91  ARG91       0.2205
     45  NE         2.4260   39.6450   14.1020 N.pl3  91  ARG91      -0.0865
     46  CZ         2.2450   40.6340   14.9770 C.cat  91  ARG91       0.5346
     47  NH1        3.2080   41.5230   15.2160 N.pl3  91  ARG91       0.1354
     48  NH2        1.0910   40.7160   15.6380 N.pl3  91  ARG91       0.1354
     49  N          4.5960   37.9720   17.6260 N.am   92  MET92      -0.1977
     50  CA         4.7530   38.9140   18.7600 C.3    92  MET92       0.1605
     51  C          6.0280   38.6190   19.5690 C.2    92  MET92       0.2287
     52  O          6.7480   39.5310   19.9650 O.2    92  MET92      -0.2864
     53  CB         3.4630   38.9720   19.6140 C.3    92  MET92       0.0413
     54  CG         2.2690   39.4770   18.7740 C.3    92  MET92       0.0598
     55  SD         0.7210   39.9460   19.5940 S.3    92  MET92      -0.1393
     56  CE         0.3440   38.3860   20.4140 C.3    92  MET92       0.0692
     57  N         -9.6570   27.3250    9.5430 N.3   119  TYR119     -0.1241
     58  CA       -10.2750   28.4360   10.2650 C.3   119  TYR119      0.1605
     59  C        -11.5950   28.0250   10.9270 C.2   119  TYR119      0.2264
     60  O        -12.1950   27.0290   10.5440 O.2   119  TYR119     -0.2867
     61  CB       -10.4690   29.6330    9.3350 C.3   119  TYR119      0.0534
     62  CG        -9.1970   30.4030    9.0770 C.ar  119  TYR119     -0.0201
     63  CD1       -8.5600   30.3340    7.8280 C.ar  119  TYR119     -0.0009
     64  CD2       -8.6280   31.2020   10.0690 C.ar  119  TYR119     -0.0009
     65  CE1       -7.3890   31.0510    7.5740 C.ar  119  TYR119      0.0417
     66  CE2       -7.4550   31.9230    9.8280 C.ar  119  TYR119      0.0417
     67  CZ        -6.8390   31.8340    8.5810 C.ar  119  TYR119      0.1957
     68  OH        -5.6730   32.5510    8.3370 O.3   119  TYR119     -0.2866
     69  N        -10.0740   39.5720   16.0030 N.3   162  LEU162     -0.1245
     70  CA        -8.7590   39.7100   15.3530 C.3   162  LEU162      0.1561
     71  C         -8.7550   40.8260   14.2820 C.2   162  LEU162      0.2260
     72  O         -9.6750   40.9040   13.4440 O.2   162  LEU162     -0.2867
     73  CB        -8.3390   38.3740   14.7350 C.3   162  LEU162      0.0270
     74  CG        -8.0790   37.2670   15.7730 C.3   162  LEU162      0.0019
     75  CD1       -8.1070   35.9040   15.0800 C.3   162  LEU162      0.0001
     76  CD2       -6.7800   37.5100   16.5110 C.3   162  LEU162      0.0001
     77  N         -7.7360   41.6270   11.2790 N.3   164  LYS164     -0.1245
     78  CA        -7.3350   40.9630   10.0290 C.3   164  LYS164      0.1561
     79  C         -8.2590   41.4560    8.9120 C.2   164  LYS164      0.2260
     80  O         -9.4180   41.7550    9.1660 O.2   164  LYS164     -0.2867
     81  CB        -7.4420   39.4420   10.1300 C.3   164  LYS164      0.0271
     82  CG        -6.8160   38.8180   11.3880 C.3   164  LYS164      0.0035
     83  CD        -5.3200   38.5800   11.2440 C.3   164  LYS164      0.0206
     84  CE        -4.6750   38.1300   12.5990 C.3   164  LYS164      0.1093
     85  NZ        -3.3040   37.5200   12.3810 N.3   164  LYS164     -0.1314
     86  N        -10.0240   40.0080    6.7110 N.3   166  ARG166     -0.1245
     87  CA       -11.2930   39.2560    6.6580 C.3   166  ARG166      0.1563
     88  C        -12.4010   39.8480    7.5300 C.2   166  ARG166      0.2260
     89  O        -13.5970   39.5490    7.3320 O.2   166  ARG166     -0.2867
     90  CB       -11.0870   37.7910    7.0430 C.3   166  ARG166      0.0307
     91  CG       -10.5290   37.5480    8.4680 C.3   166  ARG166      0.0489
     92  CD       -10.3350   36.0330    8.6710 C.3   166  ARG166      0.2205
     93  NE        -9.7410   35.6990    9.9800 N.pl3 166  ARG166     -0.0865
     94  CZ        -8.4310   35.5990   10.2220 C.cat 166  ARG166      0.5346
     95  NH1       -7.5450   35.8730    9.2670 N.pl3 166  ARG166      0.1354
     96  NH2       -7.9970   35.2550   11.4400 N.pl3 166  ARG166      0.1354
     97  N         -3.2900   39.6890   17.3380 N.3   186  ASP186     -0.1225
     98  CA        -3.1710   38.2110   17.3450 C.3   186  ASP186      0.1805
     99  C         -3.6190   37.7330   18.7130 C.2   186  ASP186      0.2598
    100  O         -3.6360   38.5280   19.6750 O.2   186  ASP186     -0.2718
    101  CB        -1.7010   37.7770   17.1500 C.3   186  ASP186      0.1424
    102  CG        -1.3130   37.5400   15.6760 C.2   186  ASP186      0.3668
    103  OD1       -2.0350   36.8100   14.9640 O.co2 186  ASP186     -0.2456
    104  OD2       -0.2380   38.0440   15.2610 O.co2 186  ASP186     -0.2456
    105  N         -3.9360   36.4430   18.8350 N.am  187  GLY187     -0.1942
    106  CA        -4.0740   35.8480   20.1760 C.3   187  GLY187      0.2014
    107  C         -5.5050   35.7060   20.6290 C.2   187  GLY187      0.2638
    108  O         -5.8940   36.2910   21.6570 O.2   187  GLY187     -0.2714
    109  N         -6.2870   34.8980   19.8970 N.am  188  ASP188     -0.1971
    110  CA        -7.6680   34.7620   20.2950 C.3   188  ASP188      0.1709
    111  C         -7.9110   33.7730   21.4170 C.2   188  ASP188      0.2293
    112  O         -8.9960   33.7680   21.9680 O.2   188  ASP188     -0.2864
    113  CB        -8.6720   34.5730   19.1320 C.3   188  ASP188      0.1436
    114  CG        -8.4420   33.3030   18.2930 C.2   188  ASP188      0.3671
    115  OD1       -9.2390   33.1390   17.3180 O.co2 188  ASP188     -0.2456
    116  OD2       -7.5250   32.4900   18.5940 O.co2 188  ASP188     -0.2456
    117  N        -10.8810   32.6460   13.4770 N.3   209  GLY209     -0.1210
    118  CA        -9.5270   32.4360   14.0030 C.3   209  GLY209      0.1956
    119  C         -9.1780   30.9750   13.8010 C.2   209  GLY209      0.2612
    120  O         -9.8750   30.2780   13.0710 O.2   209  GLY209     -0.2717
    121  N         -8.0970   30.5010   14.4290 N.am  210  GLY210     -0.1956
    122  CA        -7.6650   29.1060   14.1770 C.3   210  GLY210      0.1869
    123  C         -8.6370   28.1170   14.8060 C.2   210  GLY210      0.2309
    124  O         -9.0910   28.3360   15.9280 O.2   210  GLY210     -0.2863
    125  N         -7.0800   26.5140   18.0330 N.3   213  GLU213     -0.1245
    126  CA        -7.1750   27.5910   19.0460 C.3   213  GLU213      0.1567
    127  C         -8.6240   27.6420   19.5970 C.2   213  GLU213      0.2260
    128  O         -8.8350   27.7720   20.7990 O.2   213  GLU213     -0.2867
    129  CB        -6.6950   28.9220   18.4310 C.3   213  GLU213      0.0388
    130  CG        -5.1180   29.1970   18.5520 C.3   213  GLU213      0.1160
    131  CD        -4.1400   29.0110   17.3110 C.2   213  GLU213      0.3649
    132  OE1       -3.9400   28.0880   16.7470 O.co2 213  GLU213     -0.2457
    133  OE2       -3.2230   29.6880   16.9630 O.co2 213  GLU213     -0.2457
    134  N        -10.4840   33.3840    2.8720 N.3   239  LYS239     -0.1245
    135  CA        -9.4830   34.2170    2.2080 C.3   239  LYS239      0.1561
    136  C         -9.8700   34.6440    0.7820 C.2   239  LYS239      0.2260
    137  O         -9.3820   35.6570    0.2870 O.2   239  LYS239     -0.2867
    138  CB        -8.1200   33.5110    2.1780 C.3   239  LYS239      0.0271
    139  CG        -7.4630   33.2740    3.5260 C.3   239  LYS239      0.0035
    140  CD        -7.4280   34.5360    4.3640 C.3   239  LYS239      0.0206
    141  CE        -6.5650   34.3530    5.5960 C.3   239  LYS239      0.1093
    142  NZ        -5.2340   34.9580    5.3670 N.3   239  LYS239     -0.1314
@<TRIPOS>BOND
     1   137   136    2
     2   136   135    1
     3   138   135    1
     4   138   139    1
     5   135   134    1
     6   139   140    1
     7   140   141    1
     8   142   141    1
     9    87    86    1
    10    87    90    1
    11    87    88    1
    12    90    91    1
    13    89    88    2
    14    65    63   ar
    15    65    67   ar
    16    63    62   ar
    17    68    67    1
    18    91    92    1
    19    67    66   ar
    20    92    93    1
    21    79    80    2
    22    79    78    1
    23    62    61    1
    24    62    64   ar
    25    95    94    1
    26    61    58    1
    27    57    58    1
    28    66    64   ar
    29    93    94    2
    30    78    81    1
    31    78    77    1
    32    81    82    1
    33    94    96    1
    34    58    59    1
    35    60    59    2
    36     9     8    1
    37    83    82    1
    38    83    84    1
    39     8     7    1
    40    85    84    1
    41     7     6    1
    42     6     5    1
    43   120   119    2
    44    44    45    1
    45    44    43    1
    46    72    71    2
    47   117   118    1
    48   119   118    1
    49   119   121   am
    50    45    46    2
    51    43    42    1
    52   122   121    1
    53   122   123    1
    54    71    70    1
    55     1     2    1
    56     5     2    1
    57    42    39    1
    58    73    70    1
    59    73    74    1
    60   123   124    2
    61   103   102   ar
    62    46    47    1
    63    46    48    1
    64     2     3    1
    65     3     4    2
    66    75    74    1
    67   104   102   ar
    68    70    69    1
    69    39    38    1
    70    39    40    1
    71   102   101    1
    72    36    35    1
    73    74    76    1
    74    38    33   am
    75    40    41    2
    76    40    49   am
    77   132   131   ar
    78    35    37    1
    79    35    32    1
    80   133   131   ar
    81   101    98    1
    82    33    34    2
    83    33    32    1
    84   131   130    1
    85   115   114   ar
    86    97    98    1
    87    98    99    1
    88    49    50    1
    89    32    31    1
    90   125   126    1
    91    31    29   am
    92   114   116   ar
    93   114   113    1
    94   129   130    1
    95   129   126    1
    96    99   105   am
    97    99   100    2
    98    50    51    1
    99    50    53    1
   100    54    55    1
   101    54    53    1
   102   105   106    1
   103   126   127    1
   104   113   110    1
   105    29    28    1
   106    29    30    2
   107    25    24   ar
   108    51    52    2
   109    55    56    1
   110   127   128    2
   111    28    27    1
   112    27    20   am
   113   109   110    1
   114   109   107   am
   115    13    12    2
   116   106   107    1
   117   110   111    1
   118    24    26   ar
   119    24    23    1
   120   107   108    2
   121    20    19    1
   122    20    21    2
   123    12    18   am
   124    12    11    1
   125    19    18    1
   126    19    22    1
   127    14    16    1
   128    14    11    1
   129    14    15    1
   130   111   112    2
   131    17    15    1
   132    23    22    1
   133    10    11    1
