@<TRIPOS>MOLECULE
tmp/3d1vA00.pdb
 99 93 0 0 0
SMALL
GASTEIGER

@<TRIPOS>ATOM
      1  N         45.9630   43.7700   31.9770 N.3    32  SER32      -0.1217
      2  CA        45.3020   44.9690   32.4220 C.3    32  SER32       0.1889
      3  C         44.1690   45.1290   31.5410 C.2    32  SER32       0.2288
      4  O         44.2600   44.8040   30.3870 O.2    32  SER32      -0.2866
      5  CB        46.1660   46.1680   32.2400 C.3    32  SER32       0.2089
      6  OG        47.4400   45.6200   32.1670 O.3    32  SER32      -0.2183
      7  N         48.2200   42.5570   27.9570 N.3   115  ALA115     -0.1245
      8  CA        48.1590   43.6260   26.9680 C.3   115  ALA115      0.1562
      9  C         49.5170   43.7220   26.4780 C.2   115  ALA115      0.2260
     10  O         50.3830   43.7620   27.2870 O.2   115  ALA115     -0.2867
     11  CB        47.8730   44.9340   27.6190 C.3   115  ALA115      0.0290
     12  N         52.1920   45.3570   23.1240 N.3   117  GLY117     -0.1225
     13  CA        52.4200   46.5100   22.3050 C.3   117  GLY117      0.1811
     14  C         52.6860   45.5970   21.1480 C.2   117  GLY117      0.2280
     15  O         53.3690   44.5540   21.3520 O.2   117  GLY117     -0.2866
     16  N         58.6570   52.0220   28.6630 N.3   199  PHE199     -0.1227
     17  CA        58.3470   51.3620   27.4710 C.3   199  PHE199      0.1736
     18  C         59.6160   51.5200   26.6770 C.2   199  PHE199      0.2595
     19  O         60.4920   52.3240   27.0260 O.2   199  PHE199     -0.2718
     20  CB        57.2050   52.2580   27.0480 C.3   199  PHE199      0.0547
     21  CG        55.9680   51.9570   27.7560 C.ar  199  PHE199     -0.0202
     22  CD1       55.5030   50.6910   27.8030 C.ar  199  PHE199     -0.0042
     23  CD2       55.1660   52.9420   28.2010 C.ar  199  PHE199     -0.0042
     24  CE1       54.2470   50.3550   28.3790 C.ar  199  PHE199     -0.0003
     25  CE2       53.8800   52.6520   28.7880 C.ar  199  PHE199     -0.0003
     26  CZ        53.4670   51.3230   28.8700 C.ar  199  PHE199     -0.0000
     27  N         59.7140   50.8050   25.5750 N.am  200  GLU200     -0.1979
     28  CA        60.9180   50.7360   24.8490 C.3   200  GLU200      0.1602
     29  C         61.0930   51.9650   24.1150 C.2   200  GLU200      0.2287
     30  O         60.1060   52.7130   23.9180 O.2   200  GLU200     -0.2864
     31  CB        60.8030   49.7360   23.7760 C.3   200  GLU200      0.0415
     32  CG        60.7820   48.3060   24.2580 C.3   200  GLU200      0.1163
     33  CD        59.6770   48.1890   25.1900 C.2   200  GLU200      0.3649
     34  OE1       58.7210   49.0220   24.8940 O.co2 200  GLU200     -0.2457
     35  OE2       59.7940   47.4360   26.2370 O.co2 200  GLU200     -0.2457
     36  N         55.0340   42.6970   22.3370 N.3   216  VAL216     -0.1231
     37  CA        55.9290   42.8190   23.4640 C.3   216  VAL216      0.1692
     38  C         55.1320   43.1760   24.6590 C.2   216  VAL216      0.2593
     39  O         54.2230   44.0340   24.7760 O.2   216  VAL216     -0.2718
     40  CB        56.9540   43.8970   23.4130 C.3   216  VAL216      0.0266
     41  CG1       56.3290   45.2970   23.0610 C.3   216  VAL216      0.0020
     42  CG2       57.6820   43.9420   24.7210 C.3   216  VAL216      0.0020
     43  N         55.4770   42.4720   25.6680 N.am  217  GLY217     -0.1942
     44  CA        54.7220   42.7800   26.8540 C.3   217  GLY217      0.2014
     45  C         55.6000   42.5240   28.0100 C.2   217  GLY217      0.2638
     46  O         56.8060   42.3050   28.0430 O.2   217  GLY217     -0.2714
     47  N         54.8260   42.0060   29.1940 N.am  218  MET218     -0.1976
     48  CA        55.7730   42.1280   30.4380 C.3   218  MET218      0.1605
     49  C         55.2160   41.0720   31.5640 C.2   218  MET218      0.2287
     50  O         55.5390   41.1450   32.6300 O.2   218  MET218     -0.2864
     51  CB        55.8660   43.5220   31.4830 C.3   218  MET218      0.0413
     52  CG        56.6650   44.5340   31.0100 C.3   218  MET218      0.0598
     53  SD        56.5140   46.1310   31.2290 S.3   218  MET218     -0.1393
     54  CE        56.8930   47.1690   30.0050 C.3   218  MET218      0.0692
     55  N         47.3200   46.4050   22.8190 N.3   241  THR241     -0.1203
     56  CA        46.7430   47.6500   23.1710 C.3   241  THR241      0.1994
     57  C         47.4820   48.7440   22.5140 C.2   241  THR241      0.2617
     58  O         47.1630   49.8780   22.7720 O.2   241  THR241     -0.2717
     59  CB        46.7500   47.8710   24.6650 C.3   241  THR241      0.1784
     60  OG1       48.0910   47.7900   25.1450 O.3   241  THR241     -0.2211
     61  CG2       45.8940   46.8590   25.3860 C.3   241  THR241      0.0376
     62  N         48.4780   48.4360   21.6830 N.am  242  ASN242     -0.1974
     63  CA        49.3840   49.4720   21.0760 C.3   242  ASN242      0.1688
     64  C         50.1660   49.0160   19.9030 C.2   242  ASN242      0.2292
     65  O         50.6260   47.8730   19.8610 O.2   242  ASN242     -0.2864
     66  CB        50.4190   49.9540   22.0290 C.3   242  ASN242      0.1181
     67  CG        49.8120   50.6260   23.1610 C.2   242  ASN242      0.2629
     68  OD1       49.7950   50.1030   24.3110 O.2   242  ASN242     -0.2716
     69  ND2       49.2230   51.7910   22.8730 N.am  242  ASN242     -0.0877
     70  N         53.4740   49.6160   18.2110 N.3   244  VAL244     -0.1245
     71  CA        54.6360   50.0400   18.9160 C.3   244  VAL244      0.1561
     72  C         55.3060   50.7990   17.8560 C.2   244  VAL244      0.2260
     73  O         55.3860   50.3360   16.7250 O.2   244  VAL244     -0.2867
     74  CB        55.5110   48.8410   19.2950 C.3   244  VAL244      0.0252
     75  CG1       56.9860   49.1580   19.0480 C.3   244  VAL244      0.0019
     76  CG2       55.2040   48.3550   20.7270 C.3   244  VAL244      0.0019
     77  N         50.7080   55.6250   21.5000 N.3   254  ALA254     -0.1231
     78  CA        50.7430   54.7550   22.7440 C.3   254  ALA254      0.1694
     79  C         49.9870   55.4460   23.9460 C.2   254  ALA254      0.2592
     80  O         50.1790   56.6550   24.1440 O.2   254  ALA254     -0.2718
     81  CB        52.2060   54.4170   23.1540 C.3   254  ALA254      0.0304
     82  N         49.1800   54.7490   24.7810 N.am  255  ASN255     -0.1960
     83  CA        49.0720   53.2840   24.9730 C.3   255  ASN255      0.1819
     84  C         47.6850   52.7380   25.4610 C.2   255  ASN255      0.2621
     85  O         46.6440   53.2970   25.1020 O.2   255  ASN255     -0.2715
     86  CB        50.1810   52.8200   25.9130 C.3   255  ASN255      0.1195
     87  CG        50.4280   53.7960   26.9990 C.2   255  ASN255      0.2630
     88  OD1       51.4350   54.5060   26.9650 O.2   255  ASN255     -0.2716
     89  ND2       49.4860   53.8840   27.9590 N.am  255  ASN255     -0.0877
     90  N         47.7030   51.6600   26.2740 N.am  256  HIS256     -0.1973
     91  CA        46.5520   50.7240   26.5730 C.3   256  HIS256      0.1656
     92  C         45.3200   51.2530   27.3160 C.2   256  HIS256      0.2291
     93  O         44.1520   50.9290   26.9580 O.2   256  HIS256     -0.2864
     94  CB        47.0620   49.4960   27.3830 C.3   256  HIS256      0.0771
     95  CG        45.9770   48.7550   28.1270 C.ar  256  HIS256      0.0820
     96  ND1       44.7580   48.4220   27.5510 N.ar  256  HIS256     -0.2267
     97  CD2       45.9290   48.2880   29.4010 C.ar  256  HIS256      0.1154
     98  CE1       44.0200   47.7710   28.4360 C.ar  256  HIS256      0.1986
     99  NE2       44.7040   47.6820   29.5680 N.ar  256  HIS256     -0.2212
@<TRIPOS>BOND
     1    73    72    2
     2    72    71    1
     3    70    71    1
     4    71    74    1
     5    75    74    1
     6    74    76    1
     7    65    64    2
     8    64    63    1
     9    63    62    1
    10    63    66    1
    11    14    15    2
    12    14    13    1
    13    77    78    1
    14    62    57   am
    15    66    67    1
    16    13    12    1
    17    36    37    1
    18    57    58    2
    19    57    56    1
    20    78    81    1
    21    78    79    1
    22    55    56    1
    23    69    67   am
    24    41    40    1
    25    67    68    2
    26    56    59    1
    27    40    37    1
    28    40    42    1
    29    37    38    1
    30    31    32    1
    31    31    28    1
    32    30    29    2
    33    79    80    2
    34    79    82   am
    35    29    28    1
    36    32    33    1
    37    38    39    2
    38    38    43   am
    39    59    60    1
    40    59    61    1
    41    82    83    1
    42    28    27    1
    43    34    33   ar
    44    83    84    1
    45    83    86    1
    46    85    84    2
    47    33    35   ar
    48    84    90   am
    49    27    18   am
    50    43    44    1
    51    86    87    1
    52    90    91    1
    53     9     8    1
    54     9    10    2
    55    91    92    1
    56    91    94    1
    57    18    19    2
    58    18    17    1
    59    44    45    1
    60    93    92    2
    61    88    87    2
    62     8    11    1
    63     8     7    1
    64    87    89   am
    65    20    17    1
    66    20    21    1
    67    94    95    1
    68    17    16    1
    69    96    95   ar
    70    96    98   ar
    71    21    22   ar
    72    21    23   ar
    73    22    24   ar
    74    45    46    2
    75    45    47   am
    76    95    97   ar
    77    23    25   ar
    78    24    26   ar
    79    98    99   ar
    80    25    26   ar
    81    47    48    1
    82    97    99   ar
    83    54    53    1
    84     4     3    2
    85    48    51    1
    86    48    49    1
    87    52    53    1
    88    52    51    1
    89     3     2    1
    90    49    50    2
    91     1     2    1
    92     6     5    1
    93     5     2    1
