@<TRIPOS>MOLECULE
tmp/3d20B00.pdb
 101 95 0 0 0
SMALL
GASTEIGER

@<TRIPOS>ATOM
      1  N         11.9850   16.9660   28.3150 N.3    23  LEU23      -0.1245
      2  CA        12.3880   16.0410   27.2900 C.3    23  LEU23       0.1561
      3  C         13.8650   16.1670   27.0480 C.2    23  LEU23       0.2260
      4  O         14.3650   17.2560   26.7270 O.2    23  LEU23      -0.2867
      5  CB        11.5800   16.3950   26.0210 C.3    23  LEU23       0.0270
      6  CG        11.7900   15.6100   24.7620 C.3    23  LEU23       0.0019
      7  CD1       11.3330   14.1910   24.9340 C.3    23  LEU23       0.0001
      8  CD2       11.0230   16.2900   23.6150 C.3    23  LEU23       0.0001
      9  N         16.7080   16.1660   24.6680 N.3    25  ASP25      -0.1239
     10  CA        16.5900   16.4620   23.2420 C.3    25  ASP25       0.1674
     11  C         17.9250   16.7500   22.5850 C.2    25  ASP25       0.2266
     12  O         18.4370   17.8530   22.5840 O.2    25  ASP25      -0.2867
     13  CB        15.6760   17.6470   23.1080 C.3    25  ASP25       0.1410
     14  CG        15.2720   17.9310   21.7420 C.2    25  ASP25       0.3668
     15  OD1       15.8260   17.2450   20.8130 O.co2  25  ASP25      -0.2456
     16  OD2       14.3590   18.7790   21.5180 O.co2  25  ASP25      -0.2456
     17  N         18.5510   16.9820   19.5440 N.3    27  GLY27      -0.1210
     18  CA        18.3660   17.8550   18.4250 C.3    27  GLY27       0.1956
     19  C         18.2010   19.3220   18.7900 C.2    27  GLY27       0.2612
     20  O         18.0000   20.1630   17.8860 O.2    27  GLY27      -0.2717
     21  N         18.2600   19.6490   20.0570 N.am   28  ALA28      -0.1965
     22  CA        18.1420   21.0250   20.5410 C.3    28  ALA28       0.1728
     23  C         19.5070   21.5160   20.9330 C.2    28  ALA28       0.2616
     24  O         20.1750   20.9060   21.7750 O.2    28  ALA28      -0.2715
     25  CB        17.2040   21.1110   21.7200 C.3    28  ALA28       0.0334
     26  N         19.9760   22.6180   20.3490 N.am   29  ASP29      -0.1957
     27  CA        21.2120   23.1890   20.7840 C.3    29  ASP29       0.1840
     28  C         21.1130   23.6880   22.2180 C.2    29  ASP29       0.2622
     29  O         22.0900   23.5880   22.9880 O.2    29  ASP29      -0.2715
     30  CB        21.6240   24.3710   19.8940 C.3    29  ASP29       0.1450
     31  CG        21.8170   24.0750   18.4330 C.2    29  ASP29       0.3671
     32  OD1       22.0540   22.9150   18.0250 O.co2  29  ASP29      -0.2456
     33  OD2       21.7790   25.0810   17.6310 O.co2  29  ASP29      -0.2456
     34  N         19.9560   24.2320   22.5390 N.am   30  ASP30      -0.1971
     35  CA        19.7000   24.9940   23.7440 C.3    30  ASP30       0.1709
     36  C         18.5200   24.4140   24.5190 C.2    30  ASP30       0.2293
     37  O         17.6500   23.7640   23.9670 O.2    30  ASP30      -0.2864
     38  CB        19.3540   26.4320   23.4370 C.3    30  ASP30       0.1436
     39  CG        20.1470   27.1270   22.3660 C.2    30  ASP30       0.3671
     40  OD1       21.3590   27.1800   22.6140 O.co2  30  ASP30      -0.2456
     41  OD2       19.6960   27.6210   21.2750 O.co2  30  ASP30      -0.2456
     42  N         15.1630   24.9310   26.5370 N.3    32  VAL32      -0.1245
     43  CA        14.0520   25.8740   26.4390 C.3    32  VAL32       0.1561
     44  C         12.9300   25.3800   27.3310 C.2    32  VAL32       0.2260
     45  O         12.5060   24.2130   27.2110 O.2    32  VAL32      -0.2867
     46  CB        13.4790   25.9510   24.9780 C.3    32  VAL32       0.0252
     47  CG1       12.5730   27.1680   24.9430 C.3    32  VAL32       0.0019
     48  CG2       14.4940   26.1260   23.8960 C.3    32  VAL32       0.0019
     49  N         15.3200   31.7530   18.3950 N.3    47  ILE47      -0.1231
     50  CA        15.6650   30.3460   18.0480 C.3    47  ILE47       0.1692
     51  C         14.7460   29.9000   16.9360 C.2    47  ILE47       0.2593
     52  O         13.6460   30.3980   16.7900 O.2    47  ILE47      -0.2718
     53  CB        15.5990   29.3900   19.2590 C.3    47  ILE47       0.0266
     54  CG1       14.1930   29.4080   19.8630 C.3    47  ILE47       0.0019
     55  CG2       16.7020   29.6620   20.2750 C.3    47  ILE47       0.0020
     56  CD1       14.0710   28.4140   21.0080 C.3    47  ILE47       0.0001
     57  N         15.2430   28.9570   16.1510 N.am   48  GLY48      -0.1942
     58  CA        14.5050   28.5310   14.9500 C.3    48  GLY48       0.2014
     59  C         14.1360   27.0800   15.1290 C.2    48  GLY48       0.2639
     60  O         14.9750   26.1910   15.2740 O.2    48  GLY48      -0.2714
     61  N         12.8890   26.7780   15.1780 N.am   49  GLY49      -0.1939
     62  CA        12.3720   25.4800   15.3330 C.3    49  GLY49       0.2014
     63  C         11.7850   25.0280   13.9840 C.2    49  GLY49       0.2638
     64  O         11.8910   25.6240   12.9040 O.2    49  GLY49      -0.2714
     65  N         11.1010   23.9360   14.1960 N.am   50  ILE50      -0.1977
     66  CA        10.5980   23.3340   13.0020 C.3    50  ILE50       0.1596
     67  C          9.5970   24.2500   12.2490 C.2    50  ILE50       0.2287
     68  O          9.5510   24.2830   10.9960 O.2    50  ILE50      -0.2864
     69  CB         9.8940   21.9710   13.2720 C.3    50  ILE50       0.0276
     70  CG1        9.7660   21.1660   11.9920 C.3    50  ILE50       0.0022
     71  CG2        8.5730   22.1890   13.9330 C.3    50  ILE50       0.0022
     72  CD1        9.7000   19.6630   12.0590 C.3    50  ILE50       0.0001
     73  N          7.5040   27.1450   24.0550 N.3    80  THR80      -0.1204
     74  CA         7.8480   25.8180   23.5520 C.3    80  THR80       0.1979
     75  C          6.7000   24.8390   23.8210 C.2    80  THR80       0.2460
     76  O          6.0590   25.0080   24.8580 O.2    80  THR80      -0.2732
     77  CB         9.1820   25.3940   24.2040 C.3    80  THR80       0.1783
     78  OG1        9.4310   24.0910   23.7360 O.3    80  THR80      -0.2211
     79  CG2        9.1930   25.4020   25.7100 C.3    80  THR80       0.0376
     80  N          6.4350   23.8120   22.9860 N.am   81  PRO81      -0.2717
     81  CA         5.3480   22.8780   23.2770 C.3    81  PRO81       0.1535
     82  C          5.5960   22.0090   24.4830 C.2    81  PRO81       0.2598
     83  O          4.6590   21.5160   25.0780 O.2    81  PRO81      -0.2715
     84  CB         5.3220   21.9980   22.0320 C.3    81  PRO81       0.0310
     85  CG         5.9140   22.8760   20.9860 C.3    81  PRO81       0.0237
     86  CD         7.0840   23.5080   21.6620 C.3    81  PRO81       0.0939
     87  N          6.8910   21.7960   24.8960 N.am   82  VAL82      -0.1978
     88  CA         7.2660   20.9950   26.0350 C.3    82  VAL82       0.1596
     89  C          8.6160   21.5640   26.5190 C.2    82  VAL82       0.2287
     90  O          9.3410   22.2070   25.7610 O.2    82  VAL82      -0.2864
     91  CB         7.4030   19.4800   25.7250 C.3    82  VAL82       0.0276
     92  CG1        6.0780   18.8330   25.3320 C.3    82  VAL82       0.0022
     93  CG2        8.5400   19.2400   24.7440 C.3    82  VAL82       0.0022
     94  N         12.3450   21.3720   27.0930 N.3    84  ILE84      -0.1245
     95  CA        13.3710   20.6400   26.3780 C.3    84  ILE84       0.1561
     96  C         14.7310   20.9040   26.9910 C.2    84  ILE84       0.2260
     97  O         15.1360   22.0520   27.2190 O.2    84  ILE84      -0.2867
     98  CB        13.3570   20.8230   24.8270 C.3    84  ILE84       0.0252
     99  CG1       13.5910   22.1960   24.2520 C.3    84  ILE84       0.0019
    100  CG2       12.0240   20.3110   24.2510 C.3    84  ILE84       0.0019
    101  CD1       13.6500   22.3630   22.7540 C.3    84  ILE84       0.0001
@<TRIPOS>BOND
     1    68    67    2
     2    70    72    1
     3    70    69    1
     4    67    66    1
     5    64    63    2
     6    66    69    1
     7    66    65    1
     8    69    71    1
     9    63    65   am
    10    63    62    1
    11    58    59    1
    12    58    57    1
    13    59    61   am
    14    59    60    2
    15    61    62    1
    16    57    51   am
    17    52    51    2
    18    51    50    1
    19    33    31   ar
    20    20    19    2
    21    32    31   ar
    22    50    49    1
    23    50    53    1
    24    18    19    1
    25    18    17    1
    26    31    30    1
    27    19    21   am
    28    53    54    1
    29    53    55    1
    30    54    56    1
    31    30    27    1
    32    21    22    1
    33    26    27    1
    34    26    23   am
    35    22    23    1
    36    22    25    1
    37    27    28    1
    38    15    14   ar
    39    23    24    2
    40    85    86    1
    41    85    84    1
    42    41    39   ar
    43    16    14   ar
    44    86    80    1
    45    14    13    1
    46    84    81    1
    47    28    34   am
    48    28    29    2
    49    39    40   ar
    50    39    38    1
    51    34    35    1
    52    12    11    2
    53    11    10    1
    54   101    99    1
    55    80    81    1
    56    80    75   am
    57    13    10    1
    58    10     9    1
    59    81    82    1
    60    38    35    1
    61    74    75    1
    62    74    73    1
    63    74    77    1
    64     8     6    1
    65    78    77    1
    66    35    36    1
    67    75    76    2
    68    48    46    1
    69    37    36    2
    70    77    79    1
    71   100    98    1
    72    99    98    1
    73    82    87   am
    74    82    83    2
    75    93    91    1
    76     6     7    1
    77     6     5    1
    78    98    95    1
    79    87    88    1
    80    47    46    1
    81    46    43    1
    82    92    91    1
    83    91    88    1
    84    90    89    2
    85     5     2    1
    86    88    89    1
    87    95    96    1
    88    95    94    1
    89    43    42    1
    90    43    44    1
    91     4     3    2
    92    96    97    2
    93     3     2    1
    94    45    44    2
    95     2     1    1
