@<TRIPOS>MOLECULE
tmp/3d23A00.pdb
 212 208 0 0 0
SMALL
GASTEIGER

@<TRIPOS>ATOM
      1  N         22.0060   51.6030  -38.3880 N.3    26  MET26      -0.1230
      2  CA        22.0550   51.1940  -36.9950 C.3    26  MET26       0.1702
      3  C         23.4090   50.5030  -36.7110 C.2    26  MET26       0.2593
      4  O         23.8050   49.5850  -37.4400 O.2    26  MET26      -0.2718
      5  CB        20.8950   50.2460  -36.7900 C.3    26  MET26       0.0401
      6  CG        20.1710   50.4320  -35.5310 C.3    26  MET26       0.0596
      7  SD        20.8550   49.3080  -34.2820 S.3    26  MET26      -0.1393
      8  CE        19.2690   48.7390  -33.5410 C.3    26  MET26       0.0692
      9  N         24.1320   50.9850  -35.6910 N.am   27  THR27      -0.1939
     10  CA        25.3500   50.3180  -35.1980 C.3    27  THR27       0.2028
     11  C         25.2110   49.8900  -33.7410 C.2    27  THR27       0.2642
     12  O         24.6050   50.6170  -32.9500 O.2    27  THR27      -0.2714
     13  CB        26.5080   51.2280  -35.3270 C.3    27  THR27       0.1808
     14  OG1       26.5250   51.6990  -36.6650 O.3    27  THR27      -0.2208
     15  CG2       27.7740   50.5000  -35.0920 C.3    27  THR27       0.0379
     16  N         25.7620   48.7200  -33.3990 N.am   28  LEU28      -0.1977
     17  CA        25.8810   48.2480  -32.0100 C.3    28  LEU28       0.1596
     18  C         27.1500   47.3760  -31.8770 C.2    28  LEU28       0.2287
     19  O         27.9690   47.4040  -32.7800 O.2    28  LEU28      -0.2864
     20  CB        24.6220   47.4830  -31.5830 C.3    28  LEU28       0.0297
     21  CG        24.0440   46.3530  -32.4550 C.3    28  LEU28       0.0022
     22  CD1       25.0310   45.1850  -32.6290 C.3    28  LEU28       0.0001
     23  CD2       22.7500   45.8430  -31.8720 C.3    28  LEU28       0.0001
     24  N         18.2790   42.4800  -32.9950 N.3    42  HIS42      -0.1241
     25  CA        17.6680   43.7650  -33.3000 C.3    42  HIS42       0.1621
     26  C         18.5650   44.6630  -34.0760 C.2    42  HIS42       0.2264
     27  O         18.1660   45.7810  -34.3910 O.2    42  HIS42      -0.2867
     28  CB        17.1100   44.5350  -32.0730 C.3    42  HIS42       0.0745
     29  CG        18.1260   44.8830  -31.0260 C.ar   42  HIS42       0.0817
     30  ND1       18.9060   46.0130  -31.0920 N.ar   42  HIS42      -0.2268
     31  CD2       18.4770   44.2540  -29.8800 C.ar   42  HIS42       0.1154
     32  CE1       19.6940   46.0690  -30.0310 C.ar   42  HIS42       0.1986
     33  NE2       19.4570   45.0080  -29.2810 N.ar   42  HIS42      -0.2212
     34  N         16.5610   45.6960  -37.1590 N.3    45  CYS45      -0.1235
     35  CA        15.4530   46.6340  -37.0720 C.3    45  CYS45       0.1677
     36  C         15.7940   47.9800  -37.7210 C.2    45  CYS45       0.2270
     37  O         16.9810   48.3350  -37.8710 O.2    45  CYS45      -0.2867
     38  CB        15.1650   46.9220  -35.6180 C.3    45  CYS45       0.0956
     39  SG        14.3700   45.6130  -34.8290 S.3    45  CYS45      -0.0801
     40  N         10.9290   48.5190  -33.5380 N.3    50  MET50      -0.1245
     41  CA        11.1630   48.5140  -32.1020 C.3    50  MET50       0.1570
     42  C          9.8760   48.9160  -31.4140 C.2    50  MET50       0.2261
     43  O          9.3890   50.0540  -31.5720 O.2    50  MET50      -0.2867
     44  CB        12.3150   49.4560  -31.7610 C.3    50  MET50       0.0387
     45  CG        13.3220   49.5970  -32.9030 C.3    50  MET50       0.0595
     46  SD        14.7810   50.6280  -32.5420 S.3    50  MET50      -0.1393
     47  CE        15.9120   49.4380  -31.7760 C.3    50  MET50       0.0692
     48  N          8.9080   43.8990  -33.1250 N.3    53  PRO53      -0.2116
     49  CA         9.4730   43.4180  -34.3850 C.3    53  PRO53       0.1372
     50  C          9.0510   41.9950  -34.7290 C.2    53  PRO53       0.2244
     51  O          9.0010   41.1190  -33.8610 O.2    53  PRO53      -0.2868
     52  CB        10.9870   43.4900  -34.1470 C.3    53  PRO53       0.0268
     53  CG        11.1430   44.3720  -32.9290 C.3    53  PRO53       0.0207
     54  CD         9.9470   44.0660  -32.0990 C.3    53  PRO53       0.0892
     55  N         10.6900   39.4990  -36.5100 N.3    55  TYR55      -0.1241
     56  CA        12.0790   39.3130  -36.8920 C.3    55  TYR55       0.1605
     57  C         12.2660   38.3940  -38.1280 C.2    55  TYR55       0.2264
     58  O         13.1620   38.6320  -38.9590 O.2    55  TYR55      -0.2867
     59  CB        12.9290   38.8550  -35.6800 C.3    55  TYR55       0.0534
     60  CG        13.2650   39.9350  -34.6290 C.ar   55  TYR55      -0.0201
     61  CD1       14.2720   40.8820  -34.8640 C.ar   55  TYR55      -0.0009
     62  CD2       12.5970   39.9840  -33.3930 C.ar   55  TYR55      -0.0009
     63  CE1       14.5850   41.8660  -33.9320 C.ar   55  TYR55       0.0417
     64  CE2       12.9080   40.9630  -32.4440 C.ar   55  TYR55       0.0417
     65  CZ        13.9140   41.9000  -32.7250 C.ar   55  TYR55       0.1957
     66  OH        14.2430   42.8790  -31.7980 O.3    55  TYR55      -0.2866
     67  N         24.5120   51.4000  -18.7430 N.3   141  PHE141     -0.1227
     68  CA        24.4960   51.2610  -20.2080 C.3   141  PHE141      0.1736
     69  C         23.6930   52.4240  -20.7850 C.2   141  PHE141      0.2595
     70  O         22.5650   52.7020  -20.3230 O.2   141  PHE141     -0.2718
     71  CB        23.8580   49.9470  -20.6730 C.3   141  PHE141      0.0547
     72  CG        24.4490   48.6950  -20.0930 C.ar  141  PHE141     -0.0202
     73  CD1       25.6240   48.1540  -20.5860 C.ar  141  PHE141     -0.0042
     74  CD2       23.7680   47.9890  -19.1020 C.ar  141  PHE141     -0.0042
     75  CE1       26.1340   46.8950  -20.0710 C.ar  141  PHE141     -0.0003
     76  CE2       24.2650   46.7690  -18.5520 C.ar  141  PHE141     -0.0003
     77  CZ        25.4370   46.2200  -19.0420 C.ar  141  PHE141     -0.0000
     78  N         24.2890   53.1130  -21.7590 N.am  142  LEU142     -0.1966
     79  CA        23.5770   54.0710  -22.5640 C.3   142  LEU142      0.1728
     80  C         23.1530   53.4550  -23.8950 C.2   142  LEU142      0.2616
     81  O         23.3150   52.2450  -24.1370 O.2   142  LEU142     -0.2715
     82  CB        24.4810   55.2740  -22.8390 C.3   142  LEU142      0.0311
     83  CG        24.9040   56.0970  -21.5980 C.3   142  LEU142      0.0022
     84  CD1       25.9710   57.0890  -21.9400 C.3   142  LEU142      0.0001
     85  CD2       23.7200   56.8260  -20.9600 C.3   142  LEU142      0.0001
     86  N         22.6180   54.3070  -24.7590 N.am  143  CYS143     -0.1954
     87  CA        22.4750   54.0240  -26.1650 C.3   143  CYS143      0.1843
     88  C         23.7580   53.6120  -26.8240 C.2   143  CYS143      0.2626
     89  O         24.8000   54.2490  -26.6290 O.2   143  CYS143     -0.2714
     90  CB        21.9930   55.2600  -26.8860 C.3   143  CYS143      0.0997
     91  SG        20.2810   55.1140  -27.0160 S.3   143  CYS143     -0.0797
     92  N         23.6270   52.5660  -27.6410 N.am  144  GLY144     -0.1940
     93  CA        24.7040   52.0150  -28.4400 C.3   144  GLY144      0.2014
     94  C         25.5130   50.9560  -27.7230 C.2   144  GLY144      0.2640
     95  O         26.4650   50.4440  -28.2850 O.2   144  GLY144     -0.2714
     96  N         25.1210   50.6160  -26.4960 N.am  145  SER145     -0.1935
     97  CA        25.8520   49.6440  -25.6750 C.3   145  SER145      0.2055
     98  C         25.5160   48.2070  -25.9780 C.2   145  SER145      0.2643
     99  O         26.1910   47.2930  -25.5060 O.2   145  SER145     -0.2714
    100  CB        25.6140   49.9250  -24.1630 C.3   145  SER145      0.2130
    101  OG        24.2790   49.6660  -23.7340 O.3   145  SER145     -0.2179
    102  N         24.4700   47.9750  -26.7560 N.am  146  CYS146     -0.1967
    103  CA        24.0540   46.5970  -26.9420 C.3   146  CYS146      0.1712
    104  C         25.1100   45.8010  -27.6650 C.2   146  CYS146      0.2296
    105  O         25.7810   46.2990  -28.5720 O.2   146  CYS146     -0.2864
    106  CB        22.6830   46.4780  -27.5970 C.3   146  CYS146      0.0983
    107  SG        21.3040   47.1450  -26.5450 S.3   146  CYS146     -0.0798
    108  N         24.5890   42.2000  -23.7140 N.3   164  HIS164     -0.1226
    109  CA        23.5620   43.1900  -23.2880 C.3   164  HIS164      0.1752
    110  C         22.5940   43.5830  -24.4370 C.2   164  HIS164      0.2596
    111  O         23.0330   43.8280  -25.6290 O.2   164  HIS164     -0.2718
    112  CB        24.1790   44.4540  -22.6430 C.3   164  HIS164      0.0759
    113  CG        23.1510   45.4150  -22.1210 C.ar  164  HIS164      0.0818
    114  ND1       22.3530   45.1160  -21.0220 N.ar  164  HIS164     -0.2268
    115  CD2       22.7260   46.6290  -22.5860 C.ar  164  HIS164      0.1154
    116  CE1       21.4970   46.1090  -20.8190 C.ar  164  HIS164      0.1986
    117  NE2       21.7030   47.0440  -21.7460 N.ar  164  HIS164     -0.2212
    118  N         21.3010   43.6700  -24.0730 N.am  165  GLN165     -0.1965
    119  CA        20.2300   43.9170  -25.0220 C.3   165  GLN165      0.1733
    120  C         19.1900   44.9120  -24.5990 C.2   165  GLN165      0.2616
    121  O         18.7020   45.6900  -25.4220 O.2   165  GLN165     -0.2715
    122  CB        19.5110   42.6230  -25.2970 C.3   165  GLN165      0.0408
    123  CG        20.4080   41.6210  -25.9280 C.3   165  GLN165      0.0908
    124  CD        19.7930   40.9110  -27.1340 C.2   165  GLN165      0.2608
    125  OE1       18.8920   41.4170  -27.7980 O.2   165  GLN165     -0.2717
    126  NE2       20.3050   39.7430  -27.4360 N.am  165  GLN165     -0.0878
    127  N         18.8700   44.8890  -23.3080 N.am  166  LEU166     -0.1963
    128  CA        17.5950   45.3570  -22.8240 C.3   166  LEU166      0.1728
    129  C         17.6970   46.0890  -21.5040 C.2   166  LEU166      0.2616
    130  O         18.3160   45.6020  -20.5470 O.2   166  LEU166     -0.2715
    131  CB        16.6700   44.1280  -22.6610 C.3   166  LEU166      0.0311
    132  CG        15.1840   44.4340  -22.5620 C.3   166  LEU166      0.0022
    133  CD1       14.6600   44.8140  -23.9510 C.3   166  LEU166      0.0001
    134  CD2       14.3850   43.2660  -21.9570 C.3   166  LEU166      0.0001
    135  N         17.0270   47.2300  -21.4340 N.am  167  GLU167     -0.1963
    136  CA        16.7840   47.8960  -20.1580 C.3   167  GLU167      0.1733
    137  C         15.3090   47.7910  -19.7830 C.2   167  GLU167      0.2616
    138  O         14.4630   48.3400  -20.4600 O.2   167  GLU167     -0.2715
    139  CB        17.1820   49.3700  -20.2330 C.3   167  GLU167      0.0429
    140  CG        17.0790   50.1160  -18.9110 C.3   167  GLU167      0.1163
    141  CD        17.3430   51.6230  -19.0480 C.2   167  GLU167      0.3649
    142  OE1       18.4100   52.1220  -18.5330 O.co2 167  GLU167     -0.2457
    143  OE2       16.4920   52.2940  -19.7010 O.co2 167  GLU167     -0.2457
    144  N         15.0170   47.1220  -18.6710 N.am  168  LEU168     -0.1963
    145  CA        13.6430   46.9680  -18.2090 C.3   168  LEU168      0.1728
    146  C         13.0360   48.2350  -17.6500 C.2   168  LEU168      0.2616
    147  O         11.8530   48.5060  -17.8400 O.2   168  LEU168     -0.2715
    148  CB        13.5570   45.8880  -17.1520 C.3   168  LEU168      0.0311
    149  CG        13.2610   44.4920  -17.6730 C.3   168  LEU168      0.0022
    150  CD1       12.7360   44.6300  -19.1000 C.3   168  LEU168      0.0001
    151  CD2       14.4820   43.6120  -17.6190 C.3   168  LEU168      0.0001
    152  N         13.8660   49.0160  -16.9830 N.am  169  SER169     -0.1950
    153  CA        13.4390   50.1850  -16.2350 C.3   169  SER169      0.1924
    154  C         14.7490   50.8580  -15.7760 C.2   169  SER169      0.2314
    155  O         15.8340   50.2380  -15.7860 O.2   169  SER169     -0.2863
    156  CB        12.5680   49.7810  -15.0370 C.3   169  SER169      0.2116
    157  OG        13.3320   49.2000  -13.9680 O.3   169  SER169     -0.2180
    158  N         18.8350   45.9070  -15.9240 N.3   173  HIS173     -0.1241
    159  CA        19.3410   45.4220  -17.2240 C.3   173  HIS173      0.1621
    160  C         19.2890   43.9350  -17.4910 C.2   173  HIS173      0.2264
    161  O         19.5100   43.1310  -16.6030 O.2   173  HIS173     -0.2867
    162  CB        20.7500   45.9200  -17.4660 C.3   173  HIS173      0.0745
    163  CG        20.8900   47.3900  -17.2820 C.ar  173  HIS173      0.0817
    164  ND1       20.4290   48.2950  -18.2080 N.ar  173  HIS173     -0.2268
    165  CD2       21.4080   48.1200  -16.2630 C.ar  173  HIS173      0.1154
    166  CE1       20.6700   49.5200  -17.7790 C.ar  173  HIS173      0.1986
    167  NE2       21.2870   49.4380  -16.6110 N.ar  173  HIS173     -0.2212
    168  N         13.2560   40.5170  -26.7740 N.3   188  ASP188     -0.1225
    169  CA        13.6860   41.7460  -27.3900 C.3   188  ASP188      0.1805
    170  C         12.5900   42.5850  -28.0450 C.2   188  ASP188      0.2598
    171  O         12.5310   42.7720  -29.2570 O.2   188  ASP188     -0.2718
    172  CB        14.8450   41.4970  -28.3530 C.3   188  ASP188      0.1424
    173  CG        14.5900   40.3550  -29.3100 C.2   188  ASP188      0.3668
    174  OD1       13.6190   39.6150  -29.1210 O.co2 188  ASP188     -0.2456
    175  OD2       15.3970   40.1670  -30.2480 O.co2 188  ASP188     -0.2456
    176  N         11.7250   43.1370  -27.2300 N.am  189  ALA189     -0.1966
    177  CA        10.6700   43.9450  -27.7800 C.3   189  ALA189      0.1728
    178  C         10.4470   45.1160  -26.8470 C.2   189  ALA189      0.2616
    179  O         10.5390   44.9710  -25.6210 O.2   189  ALA189     -0.2715
    180  CB         9.3980   43.1160  -27.9260 C.3   189  ALA189      0.0334
    181  N         10.1290   46.2660  -27.4240 N.am  190  GLN190     -0.1963
    182  CA         9.9660   47.4280  -26.6150 C.3   190  GLN190      0.1733
    183  C          8.5350   47.5530  -26.1360 C.2   190  GLN190      0.2616
    184  O          7.7860   48.4260  -26.5600 O.2   190  GLN190     -0.2715
    185  CB        10.4720   48.6570  -27.3630 C.3   190  GLN190      0.0408
    186  CG        11.9890   48.6490  -27.5900 C.3   190  GLN190      0.0908
    187  CD        12.5400   50.0290  -27.9130 C.2   190  GLN190      0.2608
    188  OE1       11.8590   50.8780  -28.5140 O.2   190  GLN190     -0.2717
    189  NE2       13.7880   50.2640  -27.5310 N.am  190  GLN190     -0.0878
    190  N          8.1510   46.6450  -25.2560 N.am  191  VAL191     -0.1963
    191  CA         6.8180   46.6710  -24.6190 C.3   191  VAL191      0.1727
    192  C          6.9940   46.5060  -23.1240 C.2   191  VAL191      0.2616
    193  O          8.1330   46.2830  -22.6510 O.2   191  VAL191     -0.2715
    194  CB         5.9270   45.5070  -25.0850 C.3   191  VAL191      0.0290
    195  CG1        5.7420   45.5510  -26.5980 C.3   191  VAL191      0.0023
    196  CG2        6.4790   44.1360  -24.5830 C.3   191  VAL191      0.0023
    197  N          5.8830   46.5980  -22.3790 N.am  192  VAL192     -0.1963
    198  CA         5.9400   46.3920  -20.9360 C.3   192  VAL192      0.1727
    199  C          6.3810   44.9660  -20.6470 C.2   192  VAL192      0.2616
    200  O          5.7670   43.9950  -21.0670 O.2   192  VAL192     -0.2715
    201  CB         4.6100   46.6910  -20.2020 C.3   192  VAL192      0.0290
    202  CG1        4.6350   46.1100  -18.7810 C.3   192  VAL192      0.0023
    203  CG2        4.3470   48.1920  -20.1240 C.3   192  VAL192      0.0023
    204  N          7.5030   44.8840  -19.9650 N.am  193  GLN193     -0.1977
    205  CA         8.0340   43.6560  -19.4430 C.3   193  GLN193      0.1601
    206  C          8.3870   44.0080  -18.0040 C.2   193  GLN193      0.2287
    207  O          9.3840   44.7200  -17.7100 O.2   193  GLN193     -0.2864
    208  CB         9.2610   43.2130  -20.2250 C.3   193  GLN193      0.0394
    209  CG         8.9550   42.7080  -21.6000 C.3   193  GLN193      0.0908
    210  CD        10.2000   42.4240  -22.3720 C.2   193  GLN193      0.2608
    211  OE1       10.7890   41.3610  -22.2450 O.2   193  GLN193     -0.2717
    212  NE2       10.6120   43.3710  -23.1830 N.am  193  GLN193     -0.0878
@<TRIPOS>BOND
     1    58    57    2
     2     1     2    1
     3    57    56    1
     4    37    36    2
     5    36    35    1
     6     4     3    2
     7    34    35    1
     8    35    38    1
     9     2     5    1
    10     2     3    1
    11    56    55    1
    12    56    59    1
    13     5     6    1
    14     3     9   am
    15    14    13    1
    16     9    10    1
    17    59    60    1
    18    38    39    1
    19     6     7    1
    20    13    10    1
    21    13    15    1
    22    10    11    1
    23    61    60   ar
    24    61    63   ar
    25    50    49    1
    26    50    51    2
    27    60    62   ar
    28    27    26    2
    29    49    52    1
    30    49    48    1
    31     7     8    1
    32    52    53    1
    33    26    25    1
    34    63    65   ar
    35    11    16   am
    36    11    12    2
    37    40    41    1
    38    16    17    1
    39    62    64   ar
    40    25    24    1
    41    25    28    1
    42    48    54    1
    43    53    54    1
    44    45    46    1
    45    45    44    1
    46    19    18    2
    47    65    64   ar
    48    65    66    1
    49    22    21    1
    50    46    47    1
    51    21    23    1
    52    21    20    1
    53    41    44    1
    54    41    42    1
    55    28    29    1
    56    17    18    1
    57    17    20    1
    58    43    42    2
    59    30    29   ar
    60    30    32   ar
    61    29    31   ar
    62   175   173   ar
    63    32    33   ar
    64    31    33   ar
    65   173   174   ar
    66   173   172    1
    67   171   170    2
    68   105   104    2
    69   188   187    2
    70    93    94    1
    71    93    92    1
    72   172   169    1
    73    95    94    2
    74   170   169    1
    75   170   176   am
    76   180   177    1
    77   187   186    1
    78   187   189   am
    79   125   124    2
    80   177   176    1
    81   177   178    1
    82    94    96   am
    83   104   103    1
    84    92    88   am
    85   106   103    1
    86   106   107    1
    87   186   185    1
    88   126   124   am
    89   181   178   am
    90   181   182    1
    91   169   168    1
    92   185   182    1
    93   124   123    1
    94    91    90    1
    95   103   102    1
    96    90    87    1
    97   178   179    2
    98    88    89    2
    99    88    87    1
   100   102    98   am
   101   182   183    1
   102   195   194    1
   103   184   183    2
   104    96    97    1
   105    87    86    1
   106   183   190   am
   107    98    97    1
   108    98    99    2
   109   123   122    1
   110    97   100    1
   111   111   110    2
   112   121   120    2
   113   122   119    1
   114   190   191    1
   115   194   191    1
   116   194   196    1
   117   119   120    1
   118   119   118    1
   119    86    80   am
   120   191   192    1
   121   120   127   am
   122   110   118   am
   123   110   109    1
   124   100   101    1
   125    81    80    2
   126   133   132    1
   127    80    79    1
   128   108   109    1
   129   127   128    1
   130   109   112    1
   131   212   210   am
   132   192   193    2
   133   192   197   am
   134    82    79    1
   135    82    83    1
   136   128   131    1
   137   128   129    1
   138   131   132    1
   139   112   113    1
   140   115   113   ar
   141   115   117   ar
   142    79    78    1
   143   132   134    1
   144   197   198    1
   145   210   211    2
   146   210   209    1
   147   113   114   ar
   148    84    83    1
   149    78    69   am
   150   117   116   ar
   151   209   208    1
   152    83    85    1
   153   129   135   am
   154   129   130    2
   155   135   136    1
   156   200   199    2
   157   114   116   ar
   158   198   199    1
   159   198   201    1
   160    69    70    2
   161    69    68    1
   162    71    68    1
   163    71    72    1
   164   199   204   am
   165    73    72   ar
   166    73    75   ar
   167   138   137    2
   168   139   136    1
   169   139   140    1
   170   208   205    1
   171    68    67    1
   172   201   203    1
   173   201   202    1
   174   136   137    1
   175    72    74   ar
   176    75    77   ar
   177   204   205    1
   178   137   144   am
   179   143   141   ar
   180   205   206    1
   181    74    76   ar
   182   150   149    1
   183   141   140    1
   184   141   142   ar
   185    77    76   ar
   186   144   145    1
   187   145   146    1
   188   145   148    1
   189   164   166   ar
   190   164   163   ar
   191   206   207    2
   192   147   146    2
   193   166   167   ar
   194   149   151    1
   195   149   148    1
   196   146   152   am
   197   160   159    1
   198   160   161    2
   199   162   163    1
   200   162   159    1
   201   163   165   ar
   202   159   158    1
   203   152   153    1
   204   167   165   ar
   205   153   154    1
   206   153   156    1
   207   155   154    2
   208   156   157    1
