@<TRIPOS>MOLECULE
tmp/3d26A00.pdb
 85 85 0 0 0
SMALL
GASTEIGER

@<TRIPOS>ATOM
      1  N         93.6840  105.3580 -125.8260 N.3    98  ASP98      -0.1239
      2  CA        93.8260  106.0710 -127.0860 C.3    98  ASP98       0.1674
      3  C         93.5070  105.0450 -128.1750 C.2    98  ASP98       0.2266
      4  O         93.8010  103.8540 -128.0080 O.2    98  ASP98      -0.2867
      5  CB        95.2530  106.5830 -127.2510 C.3    98  ASP98       0.1410
      6  CG        95.4240  108.0030 -126.7720 C.2    98  ASP98       0.3668
      7  OD1       94.5900  108.4830 -125.9750 O.co2  98  ASP98      -0.2456
      8  OD2       96.4140  108.6240 -127.1970 O.co2  98  ASP98      -0.2456
      9  N         93.5660  103.6100 -132.2930 N.3   100  HIS100     -0.1241
     10  CA        94.3580  103.5760 -133.5020 C.3   100  HIS100      0.1621
     11  C         93.4810  102.8510 -134.4960 C.2   100  HIS100      0.2264
     12  O         93.3490  101.6250 -134.4670 O.2   100  HIS100     -0.2867
     13  CB        95.6560  102.8370 -133.2400 C.3   100  HIS100      0.0745
     14  CG        96.4520  103.4450 -132.1310 C.ar  100  HIS100      0.0817
     15  ND1       97.0610  104.6750 -132.2450 N.ar  100  HIS100     -0.2268
     16  CD2       96.6800  103.0290 -130.8640 C.ar  100  HIS100      0.1154
     17  CE1       97.6320  104.9910 -131.0980 C.ar  100  HIS100      0.1986
     18  NE2       97.4150  104.0090 -130.2430 N.ar  100  HIS100     -0.2212
     19  N         97.1450  104.8200 -140.5180 N.3   113  GLN113     -0.1245
     20  CA        96.8350  104.6470 -139.1090 C.3   113  GLN113      0.1566
     21  C         96.3210  105.9790 -138.5640 C.2   113  GLN113      0.2260
     22  O         96.9430  107.0240 -138.7530 O.2   113  GLN113     -0.2867
     23  CB        98.0710  104.2100 -138.3290 C.3   113  GLN113      0.0367
     24  CG        97.7410  103.7110 -136.9420 C.3   113  GLN113      0.0905
     25  CD        98.9790  103.3750 -136.1390 C.2   113  GLN113      0.2608
     26  OE1       99.6930  104.2680 -135.6790 O.2   113  GLN113     -0.2717
     27  NE2       99.2490  102.0810 -135.9720 N.am  113  GLN113     -0.0878
     28  N         95.4910  107.9740 -135.2680 N.3   115  ASP115     -0.1239
     29  CA        95.6940  108.1000 -133.8330 C.3   115  ASP115      0.1674
     30  C         94.6030  108.9940 -133.2660 C.2   115  ASP115      0.2266
     31  O         94.4590  110.1430 -133.6770 O.2   115  ASP115     -0.2867
     32  CB        97.0730  108.7130 -133.5580 C.3   115  ASP115      0.1410
     33  CG        98.2070  107.9230 -134.1980 C.2   115  ASP115      0.3668
     34  OD1       99.3570  108.4130 -134.1760 O.co2 115  ASP115     -0.2456
     35  OD2       97.9550  106.8140 -134.7170 O.co2 115  ASP115     -0.2456
     36  N         93.9950   98.7300 -132.8160 N.3   146  TRP146     -0.1241
     37  CA        94.6520   98.4150 -131.5520 C.3   146  TRP146      0.1605
     38  C         94.5340   99.6480 -130.6650 C.2   146  TRP146      0.2264
     39  O         94.2700  100.7400 -131.1640 O.2   146  TRP146     -0.2867
     40  CB        96.1260   98.0490 -131.7710 C.3   146  TRP146      0.0550
     41  CG        96.9600   99.1050 -132.4690 C.ar  146  TRP146      0.0003
     42  CD1       96.9870   99.3840 -133.8100 C.ar  146  TRP146      0.0946
     43  CD2       97.8950  100.0070 -131.8560 C.ar  146  TRP146      0.0152
     44  NE1       97.8790  100.3970 -134.0670 N.ar  146  TRP146     -0.2442
     45  CE2       98.4500  100.7980 -132.8870 C.ar  146  TRP146      0.0810
     46  CE3       98.3170  100.2230 -130.5310 C.ar  146  TRP146      0.0012
     47  CZ2       99.4050  101.7910 -132.6390 C.ar  146  TRP146      0.0191
     48  CZ3       99.2730  101.2150 -130.2820 C.ar  146  TRP146      0.0001
     49  CH2       99.8030  101.9850 -131.3330 C.ar  146  TRP146      0.0015
     50  N         95.9390  101.8280 -126.8290 N.3   148  SER148     -0.1203
     51  CA        97.1030  102.1200 -125.9900 C.3   148  SER148      0.2005
     52  C         96.6480  103.0210 -124.8310 C.2   148  SER148      0.2461
     53  O         95.5120  103.4800 -124.8120 O.2   148  SER148     -0.2732
     54  CB        98.1790  102.8130 -126.8230 C.3   148  SER148      0.2103
     55  OG        97.6230  103.9290 -127.4920 O.3   148  SER148     -0.2182
     56  N         97.5290  103.2820 -123.8510 N.am  149  PRO149     -0.2718
     57  CA        97.1790  104.1280 -122.6970 C.3   149  PRO149      0.1520
     58  C         96.7300  105.5390 -123.0970 C.2   149  PRO149      0.2440
     59  O         97.1480  106.0550 -124.1300 O.2   149  PRO149     -0.2731
     60  CB        98.4750  104.1540 -121.8860 C.3   149  PRO149      0.0310
     61  CG        99.1590  102.8440 -122.2790 C.3   149  PRO149      0.0237
     62  CD        98.9280  102.8240 -123.7620 C.3   149  PRO149      0.0939
     63  N         95.8810  106.1880 -122.2760 N.am  150  PRO150     -0.2716
     64  CA        95.4170  107.5420 -122.6140 C.3   150  PRO150      0.1536
     65  C         96.5640  108.5640 -122.7060 C.2   150  PRO150      0.2599
     66  O         97.4620  108.5690 -121.8610 O.2   150  PRO150     -0.2715
     67  CB        94.4490  107.8690 -121.4800 C.3   150  PRO150      0.0310
     68  CG        93.9460  106.5190 -121.0440 C.3   150  PRO150      0.0237
     69  CD        95.2160  105.7010 -121.0540 C.3   150  PRO150      0.0939
     70  N         96.5310  109.4160 -123.7310 N.am  151  SER151     -0.1936
     71  CA        97.5590  110.4430 -123.9160 C.3   151  SER151      0.2055
     72  C         97.4760  111.5660 -122.8800 C.2   151  SER151      0.2643
     73  O         98.5070  112.0460 -122.4050 O.2   151  SER151     -0.2714
     74  CB        97.4750  111.0750 -125.3170 C.3   151  SER151      0.2130
     75  OG        98.0310  110.2460 -126.3310 O.3   151  SER151     -0.2179
     76  N         96.2760  112.0010 -122.5050 N.am  152  HIS152     -0.1973
     77  CA        96.2450  113.0970 -121.5560 C.3   152  HIS152      0.1656
     78  C         95.9530  112.8600 -120.1050 C.2   152  HIS152      0.2291
     79  O         96.3390  113.6750 -119.2660 O.2   152  HIS152     -0.2864
     80  CB        95.4480  114.2470 -122.1220 C.3   152  HIS152      0.0771
     81  CG        96.2070  114.9730 -123.1790 C.ar  152  HIS152      0.0820
     82  ND1       97.4880  115.4350 -122.9680 N.ar  152  HIS152     -0.2267
     83  CD2       95.9280  115.2180 -124.4800 C.ar  152  HIS152      0.1154
     84  CE1       97.9680  115.9280 -124.0950 C.ar  152  HIS152      0.1986
     85  NE2       97.0410  115.8070 -125.0290 N.ar  152  HIS152     -0.2212
@<TRIPOS>BOND
     1    19    20    1
     2    20    21    1
     3    20    23    1
     4    22    21    2
     5    23    24    1
     6    24    25    1
     7    25    27   am
     8    25    26    2
     9    28    29    1
    10    35    33   ar
    11    11    12    2
    12    11    10    1
    13    33    34   ar
    14    33    32    1
    15    44    42   ar
    16    44    45   ar
    17    29    32    1
    18    29    30    1
    19    42    41   ar
    20    31    30    2
    21    10    13    1
    22    10     9    1
    23    13    14    1
    24    45    47   ar
    25    45    43   ar
    26    36    37    1
    27    47    49   ar
    28    41    43   ar
    29    41    40    1
    30    15    14   ar
    31    15    17   ar
    32    14    16   ar
    33    43    46   ar
    34    40    37    1
    35    37    38    1
    36    49    48   ar
    37    39    38    2
    38    17    18   ar
    39    16    18   ar
    40    46    48   ar
    41     3     4    2
    42     3     2    1
    43    55    54    1
    44     5     2    1
    45     5     6    1
    46     8     6   ar
    47     2     1    1
    48    50    51    1
    49    54    51    1
    50     6     7   ar
    51    75    74    1
    52    51    52    1
    53    74    71    1
    54    85    83   ar
    55    85    84   ar
    56    52    53    2
    57    52    56   am
    58    83    81   ar
    59    59    58    2
    60    84    82   ar
    61    71    70    1
    62    71    72    1
    63    56    62    1
    64    56    57    1
    65    62    61    1
    66    70    65   am
    67    81    82   ar
    68    81    80    1
    69    58    57    1
    70    58    63   am
    71    72    76   am
    72    72    73    2
    73    65    64    1
    74    65    66    2
    75    57    60    1
    76    64    63    1
    77    64    67    1
    78    76    77    1
    79    61    60    1
    80    63    69    1
    81    80    77    1
    82    77    78    1
    83    67    68    1
    84    69    68    1
    85    78    79    2
