@<TRIPOS>MOLECULE
tmp/3d27A00.pdb
 160 156 0 0 0
SMALL
GASTEIGER

@<TRIPOS>ATOM
      1  N         -5.0250   20.9710    9.8340 N.3    56  CYS56      -0.1235
      2  CA        -5.6460   19.7320   10.3220 C.3    56  CYS56       0.1677
      3  C         -7.1480   19.8430   10.5690 C.2    56  CYS56       0.2270
      4  O         -7.8840   18.8720   10.3690 O.2    56  CYS56      -0.2867
      5  CB        -4.9460   19.2430   11.5920 C.3    56  CYS56       0.0956
      6  SG        -3.2350   18.7140   11.3390 S.3    56  CYS56      -0.0801
      7  N         -9.8700   18.8600    7.8980 N.3    59  TYR59      -0.1227
      8  CA        -9.2290   17.9770    6.9280 C.3    59  TYR59       0.1736
      9  C         -9.7380   16.5490    7.1020 C.2    59  TYR59       0.2595
     10  O         -9.5360   15.9230    8.1470 O.2    59  TYR59      -0.2718
     11  CB        -7.7020   18.0460    7.0390 C.3    59  TYR59       0.0548
     12  CG        -6.9810   17.1900    6.0210 C.ar   59  TYR59      -0.0200
     13  CD1       -6.9330   17.5550    4.6750 C.ar   59  TYR59      -0.0009
     14  CD2       -6.3550   16.0110    6.4030 C.ar   59  TYR59      -0.0009
     15  CE1       -6.2770   16.7640    3.7420 C.ar   59  TYR59       0.0417
     16  CE2       -5.6980   15.2170    5.4850 C.ar   59  TYR59       0.0417
     17  CZ        -5.6610   15.5970    4.1590 C.ar   59  TYR59       0.1957
     18  OH        -5.0030   14.7990    3.2560 O.3    59  TYR59      -0.2866
     19  N        -10.4120   16.0550    6.0650 N.am   60  HIS60      -0.1975
     20  CA       -11.1780   14.8050    6.1170 C.3    60  HIS60       0.1656
     21  C        -12.1890   14.7790    7.2740 C.2    60  HIS60       0.2291
     22  O        -12.6130   13.7100    7.7170 O.2    60  HIS60      -0.2864
     23  CB       -10.2520   13.5780    6.1410 C.3    60  HIS60       0.0771
     24  CG        -9.4880   13.3700    4.8680 C.ar   60  HIS60       0.0820
     25  ND1      -10.0530   13.5380    3.6220 N.ar   60  HIS60      -0.2267
     26  CD2       -8.2090   12.9830    4.6490 C.ar   60  HIS60       0.1154
     27  CE1       -9.1520   13.2790    2.6920 C.ar   60  HIS60       0.1986
     28  NE2       -8.0240   12.9410    3.2880 N.ar   60  HIS60      -0.2212
     29  N        -11.5630   16.2420   10.3360 N.3    62  TYR62      -0.1241
     30  CA       -10.8750   16.1750   11.6260 C.3    62  TYR62       0.1605
     31  C        -11.3180   17.3240   12.5320 C.2    62  TYR62       0.2264
     32  O        -11.2790   18.4830   12.1230 O.2    62  TYR62      -0.2867
     33  CB        -9.3510   16.1460   11.4510 C.3    62  TYR62       0.0534
     34  CG        -8.6090   15.8840   12.7400 C.ar   62  TYR62      -0.0201
     35  CD1       -8.5640   14.6030   13.2970 C.ar   62  TYR62      -0.0009
     36  CD2       -7.9680   16.9200   13.4170 C.ar   62  TYR62      -0.0009
     37  CE1       -7.8960   14.3650   14.4940 C.ar   62  TYR62       0.0417
     38  CE2       -7.2950   16.6900   14.6140 C.ar   62  TYR62       0.0417
     39  CZ        -7.2680   15.4130   15.1440 C.ar   62  TYR62       0.1957
     40  OH        -6.6030   15.1860   16.3190 O.3    62  TYR62      -0.2866
     41  N         -2.9660   17.0960   16.3410 N.3    67  CYS67      -0.1235
     42  CA        -3.1230   15.7070   16.7470 C.3    67  CYS67       0.1677
     43  C         -2.3020   15.4540   17.9920 C.2    67  CYS67       0.2270
     44  O         -1.1250   15.8170   18.0380 O.2    67  CYS67      -0.2867
     45  CB        -2.6750   14.7630   15.6300 C.3    67  CYS67       0.0956
     46  SG        -3.6220   14.9400   14.1190 S.3    67  CYS67      -0.0801
     47  N         -3.3040   10.4580   15.0560 N.3    76  HIS76      -0.1241
     48  CA        -4.6420   11.0500   14.9420 C.3    76  HIS76       0.1621
     49  C         -5.4420   11.0650   16.2440 C.2    76  HIS76       0.2264
     50  O         -6.6780   11.1270   16.2210 O.2    76  HIS76      -0.2867
     51  CB        -5.4510   10.3950   13.8050 C.3    76  HIS76       0.0745
     52  CG        -4.7560   10.4040   12.4780 C.ar   76  HIS76       0.0817
     53  ND1       -5.0710    9.5180   11.4700 N.ar   76  HIS76      -0.2268
     54  CD2       -3.7520   11.1770   11.9990 C.ar   76  HIS76       0.1154
     55  CE1       -4.3000    9.7550   10.4230 C.ar   76  HIS76       0.1986
     56  NE2       -3.4880   10.7530   10.7190 N.ar   76  HIS76      -0.2212
     57  N          1.3290   16.5270   16.8480 N.3    94  ASP94      -0.1239
     58  CA         1.5460   16.6930   15.4270 C.3    94  ASP94       0.1674
     59  C          0.8740   17.9740   14.9430 C.2    94  ASP94       0.2266
     60  O         -0.3420   18.1440   15.0750 O.2    94  ASP94      -0.2867
     61  CB         1.0140   15.4740   14.6680 C.3    94  ASP94       0.1410
     62  CG         1.5530   15.3760   13.2560 C.2    94  ASP94       0.3668
     63  OD1        2.0890   16.3760   12.7210 O.co2  94  ASP94      -0.2456
     64  OD2        1.4360   14.2820   12.6690 O.co2  94  ASP94      -0.2456
     65  N          0.4090   20.9420   11.8170 N.3    96  THR96      -0.1218
     66  CA         0.5410   21.4440   10.4500 C.3    96  THR96       0.1862
     67  C         -0.0540   22.8400   10.3380 C.2    96  THR96       0.2287
     68  O         -1.2340   23.0560   10.6010 O.2    96  THR96      -0.2866
     69  CB        -0.0790   20.5030    9.4040 C.3    96  THR96       0.1770
     70  OG1        0.4910   19.2000    9.5520 O.3    96  THR96      -0.2211
     71  CG2        0.2000   21.0130    7.9830 C.3    96  THR96       0.0375
     72  N          4.8520   21.0260    8.3050 N.3   105  ASP105     -0.1239
     73  CA         4.3460   19.7950    8.9060 C.3   105  ASP105      0.1674
     74  C          5.3910   19.1500    9.8090 C.2   105  ASP105      0.2266
     75  O          6.4400   18.6960    9.3430 O.2   105  ASP105     -0.2867
     76  CB         3.9260   18.8200    7.8010 C.3   105  ASP105      0.1410
     77  CG         2.9730   17.7480    8.2870 C.2   105  ASP105      0.3668
     78  OD1        2.7540   17.6440    9.5110 O.co2 105  ASP105     -0.2456
     79  OD2        2.4410   17.0030    7.4340 O.co2 105  ASP105     -0.2456
     80  N          0.6480    4.4930    7.0580 N.3   165  TYR165     -0.1227
     81  CA         0.9080    5.9220    6.9960 C.3   165  TYR165      0.1736
     82  C          2.3310    6.2090    6.5530 C.2   165  TYR165      0.2595
     83  O          3.2520    5.4320    6.8160 O.2   165  TYR165     -0.2718
     84  CB         0.6090    6.5760    8.3450 C.3   165  TYR165      0.0548
     85  CG        -0.8260    6.3910    8.7690 C.ar  165  TYR165     -0.0200
     86  CD1       -1.1820    5.3910    9.6730 C.ar  165  TYR165     -0.0009
     87  CD2       -1.8360    7.1940    8.2420 C.ar  165  TYR165     -0.0009
     88  CE1       -2.5090    5.2080   10.0510 C.ar  165  TYR165      0.0417
     89  CE2       -3.1640    7.0150    8.6140 C.ar  165  TYR165      0.0417
     90  CZ        -3.4910    6.0210    9.5160 C.ar  165  TYR165      0.1957
     91  OH        -4.8060    5.8420    9.8850 O.3   165  TYR165     -0.2866
     92  N          2.4980    7.3320    5.8650 N.am  166  CYS166     -0.1970
     93  CA         3.7580    7.6480    5.2230 C.3   166  CYS166      0.1712
     94  C          4.0100    9.1480    5.2120 C.2   166  CYS166      0.2296
     95  O          3.0850    9.9490    5.4050 O.2   166  CYS166     -0.2864
     96  CB         3.7650    7.0900    3.7890 C.3   166  CYS166      0.0983
     97  SG         2.4220    7.7010    2.7290 S.3   166  CYS166     -0.0798
     98  N          5.2180   12.5100    2.8960 N.3   168  HIS168     -0.1241
     99  CA         4.5330   13.0120    1.7160 C.3   168  HIS168      0.1621
    100  C          5.1660   14.2930    1.2230 C.2   168  HIS168      0.2264
    101  O          5.6800   15.0850    2.0160 O.2   168  HIS168     -0.2867
    102  CB         3.0580   13.2750    2.0420 C.3   168  HIS168      0.0745
    103  CG         2.8590   14.1320    3.2530 C.ar  168  HIS168      0.0817
    104  ND1        2.6040   15.4830    3.1720 N.ar  168  HIS168     -0.2268
    105  CD2        2.9060   13.8360    4.5730 C.ar  168  HIS168      0.1154
    106  CE1        2.4910   15.9800    4.3920 C.ar  168  HIS168      0.1986
    107  NE2        2.6730   15.0020    5.2600 N.ar  168  HIS168     -0.2212
    108  N         -1.4620   20.1400    1.4300 N.3   174  PHE174     -0.1227
    109  CA        -1.1040   19.4010    2.6400 C.3   174  PHE174      0.1736
    110  C         -0.3330   18.1300    2.2480 C.2   174  PHE174      0.2595
    111  O          0.7900   17.9020    2.7070 O.2   174  PHE174     -0.2718
    112  CB        -2.3820   19.0590    3.4300 C.3   174  PHE174      0.0547
    113  CG        -2.1480   18.6090    4.8620 C.ar  174  PHE174     -0.0202
    114  CD1       -0.8860   18.2200    5.3170 C.ar  174  PHE174     -0.0042
    115  CD2       -3.2250   18.5440    5.7510 C.ar  174  PHE174     -0.0042
    116  CE1       -0.6960   17.7930    6.6320 C.ar  174  PHE174     -0.0003
    117  CE2       -3.0510   18.1200    7.0680 C.ar  174  PHE174     -0.0003
    118  CZ        -1.7830   17.7410    7.5110 C.ar  174  PHE174     -0.0000
    119  N         -0.9370   17.3290    1.3750 N.am  175  HIS175     -0.1975
    120  CA        -0.3280   16.0980    0.8940 C.3   175  HIS175      0.1656
    121  C         -0.1850   16.1320   -0.6180 C.2   175  HIS175      0.2291
    122  O         -1.1730   16.2510   -1.3490 O.2   175  HIS175     -0.2864
    123  CB        -1.1370   14.8830    1.3490 C.3   175  HIS175      0.0771
    124  CG        -1.2070   14.7440    2.8370 C.ar  175  HIS175      0.0820
    125  ND1       -2.1660   15.3750    3.5990 N.ar  175  HIS175     -0.2267
    126  CD2       -0.4140   14.0770    3.7070 C.ar  175  HIS175      0.1154
    127  CE1       -1.9700   15.0900    4.8730 C.ar  175  HIS175      0.1986
    128  NE2       -0.9080   14.3100    4.9660 N.ar  175  HIS175     -0.2212
    129  N          8.2360   10.9380    8.3610 N.3   201  GLU201     -0.1245
    130  CA         7.5080   10.8160    9.6320 C.3   201  GLU201      0.1567
    131  C          7.2770    9.3800   10.1080 C.2   201  GLU201      0.2260
    132  O          6.1280    8.9340   10.2130 O.2   201  GLU201     -0.2867
    133  CB         6.1810   11.5910    9.5830 C.3   201  GLU201      0.0388
    134  CG         5.3480   11.3600    8.3340 C.3   201  GLU201      0.1160
    135  CD         3.9790   12.0080    8.4080 C.2   201  GLU201      0.3649
    136  OE1        3.2870   11.8420    9.4440 O.co2 201  GLU201     -0.2457
    137  OE2        3.5920   12.6840    7.4270 O.co2 201  GLU201     -0.2457
    138  N        -11.1650    7.9490   14.1790 N.3   218  TRP218     -0.1241
    139  CA        -9.9110    8.7010   14.1450 C.3   218  TRP218      0.1605
    140  C         -8.7530    8.0710   14.9180 C.2   218  TRP218      0.2264
    141  O         -7.6590    7.9040   14.3740 O.2   218  TRP218     -0.2867
    142  CB       -10.1350   10.1300   14.6360 C.3   218  TRP218      0.0550
    143  CG       -10.9030   10.9750   13.6760 C.ar  218  TRP218      0.0003
    144  CD1      -12.1890   11.4090   13.8140 C.ar  218  TRP218      0.0946
    145  CD2      -10.4360   11.4900   12.4240 C.ar  218  TRP218      0.0152
    146  NE1      -12.5510   12.1680   12.7290 N.ar  218  TRP218     -0.2442
    147  CE2      -11.4950   12.2320   11.8580 C.ar  218  TRP218      0.0810
    148  CE3       -9.2220   11.3980   11.7240 C.ar  218  TRP218      0.0012
    149  CZ2      -11.3820   12.8790   10.6190 C.ar  218  TRP218      0.0191
    150  CZ3       -9.1080   12.0430   10.4920 C.ar  218  TRP218      0.0001
    151  CH2      -10.1820   12.7740    9.9550 C.ar  218  TRP218      0.0015
    152  N          8.4130   13.8960   13.0930 N.3   232  GLU232     -0.1245
    153  CA         8.2370   14.3690   11.7250 C.3   232  GLU232      0.1567
    154  C          8.9920   15.6620   11.4740 C.2   232  GLU232      0.2260
    155  O          8.9740   16.5700   12.3070 O.2   232  GLU232     -0.2867
    156  CB         6.7550   14.5880   11.4310 C.3   232  GLU232      0.0388
    157  CG         6.4690   15.1710   10.0550 C.3   232  GLU232      0.1160
    158  CD         4.9980   15.1670    9.7150 C.2   232  GLU232      0.3649
    159  OE1        4.1730   15.2390   10.6450 O.co2 232  GLU232     -0.2457
    160  OE2        4.6680   15.1100    8.5120 O.co2 232  GLU232     -0.2457
@<TRIPOS>BOND
     1   122   121    2
     2   121   120    1
     3   120   123    1
     4   120   119    1
     5   100    99    1
     6   100   101    2
     7   123   124    1
     8   119   110   am
     9   108   109    1
    10    99   102    1
    11    99    98    1
    12   102   103    1
    13   110   109    1
    14   110   111    2
    15   109   112    1
    16    27    28   ar
    17    27    25   ar
    18    97    96    1
    19   124   125   ar
    20   124   126   ar
    21   104   103   ar
    22   104   106   ar
    23   103   105   ar
    24    18    17    1
    25    28    26   ar
    26   112   113    1
    27   125   127   ar
    28    25    24   ar
    29   126   128   ar
    30    15    17   ar
    31    15    13   ar
    32    96    93    1
    33    17    16   ar
    34   106   107   ar
    35   105   107   ar
    36    26    24   ar
    37    13    12   ar
    38   113   114   ar
    39   113   115   ar
    40    24    23    1
    41   127   128   ar
    42    94    93    1
    43    94    95    2
    44    93    92    1
    45   114   116   ar
    46    16    14   ar
    47   115   117   ar
    48    92    82   am
    49    12    14   ar
    50    12    11    1
    51    19    20    1
    52    19     9   am
    53    20    23    1
    54    20    21    1
    55    82    83    2
    56    82    81    1
    57   116   118   ar
    58     8    11    1
    59     8     9    1
    60     8     7    1
    61    81    80    1
    62    81    84    1
    63   117   118   ar
    64     9    10    2
    65    21    22    2
    66   137   135   ar
    67    79    77   ar
    68    76    77    1
    69    76    73    1
    70    71    69    1
    71    87    89   ar
    72    87    85   ar
    73    77    78   ar
    74    72    73    1
    75   134   135    1
    76   134   133    1
    77    84    85    1
    78   129   130    1
    79   135   136   ar
    80   160   158   ar
    81    89    90   ar
    82    85    86   ar
    83    73    74    1
    84    75    74    2
    85    69    70    1
    86    69    66    1
    87    90    91    1
    88    90    88   ar
    89   133   130    1
    90   130   131    1
    91    86    88   ar
    92   158   157    1
    93   158   159   ar
    94     1     2    1
    95   151   150   ar
    96   151   149   ar
    97   157   156    1
    98   131   132    2
    99     2     3    1
   100     2     5    1
   101    29    30    1
   102    67    66    1
   103    67    68    2
   104     4     3    2
   105    55    56   ar
   106    55    53   ar
   107    66    65    1
   108   150   148   ar
   109   149   147   ar
   110    56    54   ar
   111     6     5    1
   112   156   153    1
   113    33    30    1
   114    33    34    1
   115    53    52   ar
   116   154   153    1
   117   154   155    2
   118    30    31    1
   119   148   145   ar
   120   153   152    1
   121   147   145   ar
   122   147   146   ar
   123    54    52   ar
   124    32    31    2
   125   145   143   ar
   126    52    51    1
   127    64    62   ar
   128    63    62   ar
   129   146   144   ar
   130    34    35   ar
   131    34    36   ar
   132    62    61    1
   133    35    37   ar
   134    36    38   ar
   135   143   144   ar
   136   143   142    1
   137    51    48    1
   138    46    45    1
   139   139   138    1
   140   139   142    1
   141   139   140    1
   142   141   140    2
   143    37    39   ar
   144    38    39   ar
   145    61    58    1
   146    48    47    1
   147    48    49    1
   148    59    60    2
   149    59    58    1
   150    39    40    1
   151    58    57    1
   152    45    42    1
   153    50    49    2
   154    41    42    1
   155    42    43    1
   156    43    44    2
