@<TRIPOS>MOLECULE
tmp/3d28B00.pdb
 177 171 0 0 0
SMALL
GASTEIGER

@<TRIPOS>ATOM
      1  N         43.5760   -5.4610   46.8450 N.3   188  PHE188     -0.1241
      2  CA        44.3780   -4.4170   47.4890 C.3   188  PHE188      0.1605
      3  C         43.5450   -3.3420   48.2050 C.2   188  PHE188      0.2264
      4  O         44.0860   -2.5260   48.9440 O.2   188  PHE188     -0.2867
      5  CB        45.3660   -3.7960   46.4940 C.3   188  PHE188      0.0534
      6  CG        46.3850   -4.7690   45.9540 C.ar  188  PHE188     -0.0203
      7  CD1       47.3330   -5.3530   46.7990 C.ar  188  PHE188     -0.0042
      8  CD2       46.4050   -5.0940   44.6010 C.ar  188  PHE188     -0.0042
      9  CE1       48.2800   -6.2520   46.3090 C.ar  188  PHE188     -0.0003
     10  CE2       47.3540   -5.9900   44.0910 C.ar  188  PHE188     -0.0003
     11  CZ        48.2960   -6.5690   44.9510 C.ar  188  PHE188     -0.0000
     12  N         44.0480   -6.2250   56.2820 N.3   192  PRO192     -0.2116
     13  CA        44.0060   -7.6620   56.6050 C.3   192  PRO192      0.1372
     14  C         42.6980   -8.0830   57.2850 C.2   192  PRO192      0.2244
     15  O         42.1850   -9.1690   57.0170 O.2   192  PRO192     -0.2868
     16  CB        45.1910   -7.8420   57.5610 C.3   192  PRO192      0.0268
     17  CG        46.1260   -6.7600   57.1990 C.3   192  PRO192      0.0207
     18  CD        45.2560   -5.5820   56.8340 C.3   192  PRO192      0.0892
     19  N         40.2300   -8.4570   54.5820 N.3   195  ARG195     -0.1245
     20  CA        40.5010   -9.5660   53.6700 C.3   195  ARG195      0.1563
     21  C         39.9750  -10.8800   54.2280 C.2   195  ARG195      0.2260
     22  O         39.4010  -11.6800   53.4930 O.2   195  ARG195     -0.2867
     23  CB        41.9940   -9.6950   53.3350 C.3   195  ARG195      0.0307
     24  CG        42.2570  -10.8290   52.3530 C.3   195  ARG195      0.0489
     25  CD        43.7100  -10.9870   51.9270 C.3   195  ARG195      0.2205
     26  NE        43.8620  -12.1930   51.1100 N.pl3 195  ARG195     -0.0865
     27  CZ        43.8460  -12.2160   49.7780 C.cat 195  ARG195      0.5346
     28  NH1       43.7080  -11.0900   49.0870 N.pl3 195  ARG195      0.1354
     29  NH2       43.9780  -13.3680   49.1300 N.pl3 195  ARG195      0.1354
     30  N         44.9960  -10.3560   43.7380 N.3   311  ASN311     -0.1225
     31  CA        46.0420   -9.3800   44.0510 C.3   311  ASN311      0.1785
     32  C         47.2210   -9.5670   43.1000 C.2   311  ASN311      0.2598
     33  O         48.1010  -10.3930   43.3520 O.2   311  ASN311     -0.2718
     34  CB        46.5300   -9.5290   45.4980 C.3   311  ASN311      0.1169
     35  CG        45.4170   -9.3850   46.5160 C.2   311  ASN311      0.2627
     36  OD1       44.4680  -10.1800   46.5390 O.2   311  ASN311     -0.2716
     37  ND2       45.5390   -8.3770   47.3890 N.am  311  ASN311     -0.0877
     38  N         47.2450   -8.8040   42.0130 N.am  312  GLY312     -0.1942
     39  CA        48.2470   -9.0050   40.9770 C.3   312  GLY312      0.2014
     40  C         48.1710  -10.4200   40.4330 C.2   312  GLY312      0.2639
     41  O         47.1100  -10.8790   39.9950 O.2   312  GLY312     -0.2714
     42  N         49.3020  -11.1130   40.4800 N.am  313  ASP313     -0.1957
     43  CA        49.3980  -12.5040   40.0480 C.3   313  ASP313      0.1840
     44  C         48.6800  -13.4600   41.0030 C.2   313  ASP313      0.2622
     45  O         48.4030  -14.5990   40.6370 O.2   313  ASP313     -0.2715
     46  CB        50.8690  -12.9110   39.9330 C.3   313  ASP313      0.1450
     47  CG        51.6180  -12.7800   41.2520 C.2   313  ASP313      0.3671
     48  OD1       51.5680  -11.6910   41.8660 O.co2 313  ASP313     -0.2456
     49  OD2       52.2610  -13.7660   41.6740 O.co2 313  ASP313     -0.2456
     50  N         48.3950  -12.9960   42.2210 N.am  314  ASP314     -0.1971
     51  CA        47.7990  -13.8380   43.2650 C.3   314  ASP314      0.1709
     52  C         46.2890  -13.9980   43.0800 C.2   314  ASP314      0.2293
     53  O         45.5260  -13.0290   43.1690 O.2   314  ASP314     -0.2864
     54  CB        48.1370  -13.3030   44.6650 C.3   314  ASP314      0.1436
     55  CG        48.0210  -14.3650   45.7400 C.2   314  ASP314      0.3671
     56  OD1       46.8890  -14.6970   46.1400 O.co2 314  ASP314     -0.2456
     57  OD2       49.0670  -14.8640   46.1960 O.co2 314  ASP314     -0.2456
     58  N         47.5940  -14.8120   48.9360 N.3   361  CYS361     -0.1221
     59  CA        48.5070  -13.7890   49.4460 C.3   361  CYS361      0.1808
     60  C         49.4010  -14.3720   50.5390 C.2   361  CYS361      0.2602
     61  O         49.5500  -13.7930   51.6210 O.2   361  CYS361     -0.2717
     62  CB        47.7550  -12.5590   49.9520 C.3   361  CYS361      0.0970
     63  SG        47.3640  -11.4140   48.6450 S.3   361  CYS361     -0.0800
     64  N         49.9640  -15.5420   50.2460 N.am  362  SER362     -0.1938
     65  CA        50.9720  -16.1850   51.0900 C.3   362  SER362      0.2055
     66  C         50.4770  -16.5290   52.5020 C.2   362  SER362      0.2643
     67  O         51.2610  -16.9260   53.3630 O.2   362  SER362     -0.2714
     68  CB        52.2410  -15.3240   51.1300 C.3   362  SER362      0.2130
     69  OG        52.6410  -14.9860   49.8080 O.3   362  SER362     -0.2179
     70  N         49.1660  -16.4200   52.7020 N.am  363  SER363     -0.1949
     71  CA        48.5570  -16.4490   54.0190 C.3   363  SER363      0.1924
     72  C         47.3300  -17.3360   54.0310 C.2   363  SER363      0.2314
     73  O         46.6370  -17.4730   53.0140 O.2   363  SER363     -0.2863
     74  CB        48.1290  -15.0410   54.4350 C.3   363  SER363      0.2116
     75  OG        49.1360  -14.0930   54.1470 O.3   363  SER363     -0.2180
     76  N         44.1970  -13.7600   59.5040 N.3   379  LEU379     -0.1245
     77  CA        45.1750  -14.2210   58.5090 C.3   379  LEU379      0.1561
     78  C         46.5420  -14.5030   59.1320 C.2   379  LEU379      0.2260
     79  O         46.9890  -13.7970   60.0430 O.2   379  LEU379     -0.2867
     80  CB        45.2890  -13.2340   57.3360 C.3   379  LEU379      0.0270
     81  CG        44.0880  -13.1800   56.3730 C.3   379  LEU379      0.0019
     82  CD1       43.9870  -11.8400   55.6700 C.3   379  LEU379      0.0001
     83  CD2       44.1070  -14.3200   55.3570 C.3   379  LEU379      0.0001
     84  N         50.5440  -16.9790   58.3320 N.3   381  ARG381     -0.1245
     85  CA        51.3660  -17.7880   57.4460 C.3   381  ARG381      0.1563
     86  C         52.4180  -18.5770   58.2210 C.2   381  ARG381      0.2260
     87  O         52.5940  -18.3750   59.4200 O.2   381  ARG381     -0.2867
     88  CB        52.0190  -16.9170   56.3650 C.3   381  ARG381      0.0307
     89  CG        52.9610  -15.8250   56.8690 C.3   381  ARG381      0.0489
     90  CD        53.7440  -15.2200   55.7110 C.3   381  ARG381      0.2205
     91  NE        54.7400  -16.1480   55.1690 N.pl3 381  ARG381     -0.0865
     92  CZ        55.3500  -16.0070   53.9950 C.cat 381  ARG381      0.5346
     93  NH1       55.0780  -14.9730   53.2000 N.pl3 381  ARG381      0.1354
     94  NH2       56.2320  -16.9180   53.6050 N.pl3 381  ARG381      0.1354
     95  N         56.4920   -4.4240   58.4140 N.3   405  GLY405     -0.1210
     96  CA        55.3820   -4.8510   57.5630 C.3   405  GLY405      0.1956
     97  C         54.6750   -6.0930   58.0770 C.2   405  GLY405      0.2611
     98  O         53.4500   -6.1800   58.0130 O.2   405  GLY405     -0.2717
     99  N         55.4450   -7.0490   58.5910 N.am  406  ASN406     -0.1974
    100  CA        54.8920   -8.3100   59.1160 C.3   406  ASN406      0.1688
    101  C         54.1950   -8.1690   60.4690 C.2   406  ASN406      0.2292
    102  O         53.2590   -8.9100   60.7580 O.2   406  ASN406     -0.2864
    103  CB        55.9720   -9.3970   59.2070 C.3   406  ASN406      0.1181
    104  CG        56.3660   -9.9580   57.8460 C.2   406  ASN406      0.2629
    105  OD1       55.5140  -10.3660   57.0520 O.2   406  ASN406     -0.2716
    106  ND2       57.6690   -9.9990   57.5830 N.am  406  ASN406     -0.0877
    107  N         50.8210   -6.2580   59.3960 N.3   409  MET409     -0.1230
    108  CA        49.9010   -7.0710   58.5930 C.3   409  MET409      0.1702
    109  C         49.5780   -8.4430   59.1920 C.2   409  MET409      0.2592
    110  O         48.5410   -9.0330   58.8740 O.2   409  MET409     -0.2718
    111  CB        50.4070   -7.1920   57.1530 C.3   409  MET409      0.0401
    112  CG        50.5790   -5.8270   56.4690 C.3   409  MET409      0.0596
    113  SD        49.0300   -5.0020   56.0360 S.3   409  MET409     -0.1393
    114  CE        48.6320   -5.8440   54.5090 C.3   409  MET409      0.0692
    115  N         50.4580   -8.9400   60.0600 N.am  410  TYR410     -0.1976
    116  CA        50.2260  -10.2140   60.7480 C.3   410  TYR410      0.1639
    117  C         50.1950  -10.0160   62.2660 C.2   410  TYR410      0.2290
    118  O         50.6300  -10.8820   63.0260 O.2   410  TYR410     -0.2864
    119  CB        51.2880  -11.2510   60.3570 C.3   410  TYR410      0.0560
    120  CG        51.2030  -11.7550   58.9320 C.ar  410  TYR410     -0.0198
    121  CD1       50.2170  -12.6700   58.5520 C.ar  410  TYR410     -0.0009
    122  CD2       52.1310  -11.3450   57.9690 C.ar  410  TYR410     -0.0009
    123  CE1       50.1390  -13.1490   57.2420 C.ar  410  TYR410      0.0417
    124  CE2       52.0690  -11.8150   56.6580 C.ar  410  TYR410      0.0417
    125  CZ        51.0670  -12.7190   56.3040 C.ar  410  TYR410      0.1957
    126  OH        51.0000  -13.1970   55.0200 O.3   410  TYR410     -0.2866
    127  N         57.1050   -1.7040   53.4640 N.3   441  GLN441     -0.1231
    128  CA        56.2470   -1.7720   52.2900 C.3   441  GLN441      0.1698
    129  C         54.9600   -2.5450   52.5420 C.2   441  GLN441      0.2592
    130  O         54.9900   -3.7190   52.9220 O.2   441  GLN441     -0.2718
    131  CB        56.9940   -2.3770   51.1050 C.3   441  GLN441      0.0381
    132  CG        58.1070   -1.5070   50.5550 C.3   441  GLN441      0.0905
    133  CD        58.6460   -2.0150   49.2290 C.2   441  GLN441      0.2608
    134  OE1       58.9670   -1.2240   48.3390 O.2   441  GLN441     -0.2717
    135  NE2       58.7390   -3.3410   49.0850 N.am  441  GLN441     -0.0878
    136  N         53.8320   -1.8780   52.3300 N.am  442  ILE442     -0.1966
    137  CA        52.5340   -2.5360   52.3830 C.3   442  ILE442      0.1727
    138  C         51.8790   -2.4760   51.0120 C.2   442  ILE442      0.2616
    139  O         51.6420   -1.3870   50.4680 O.2   442  ILE442     -0.2715
    140  CB        51.6150   -1.9210   53.4420 C.3   442  ILE442      0.0290
    141  CG1       52.2430   -2.0710   54.8290 C.3   442  ILE442      0.0022
    142  CG2       50.2370   -2.5790   53.3890 C.3   442  ILE442      0.0023
    143  CD1       51.7680   -1.0560   55.8260 C.3   442  ILE442      0.0001
    144  N         51.5990   -3.6620   50.4730 N.am  443  TYR443     -0.1960
    145  CA        51.0580   -3.8400   49.1230 C.3   443  TYR443      0.1771
    146  C         51.9420   -3.2040   48.0520 C.2   443  TYR443      0.2620
    147  O         51.4580   -2.5150   47.1590 O.2   443  TYR443     -0.2715
    148  CB        49.5870   -3.3900   49.0180 C.3   443  TYR443      0.0574
    149  CG        48.6190   -4.2600   49.8050 C.ar  443  TYR443     -0.0198
    150  CD1       48.9700   -5.5580   50.2000 C.ar  443  TYR443     -0.0009
    151  CD2       47.3420   -3.8010   50.1280 C.ar  443  TYR443     -0.0009
    152  CE1       48.0890   -6.3570   50.9180 C.ar  443  TYR443      0.0417
    153  CE2       46.4460   -4.6030   50.8430 C.ar  443  TYR443      0.0417
    154  CZ        46.8300   -5.8740   51.2330 C.ar  443  TYR443      0.1957
    155  OH        45.9550   -6.6700   51.9340 O.3   443  TYR443     -0.2866
    156  N         53.2460   -3.4570   48.1560 N.am  444  GLY444     -0.1954
    157  CA        54.2300   -2.9350   47.2110 C.3   444  GLY444      0.1869
    158  C         54.4690   -1.4350   47.2890 C.2   444  GLY444      0.2309
    159  O         55.0070   -0.8450   46.3570 O.2   444  GLY444     -0.2863
    160  N         51.0800   -1.7630   44.5640 N.3   550  TYR550     -0.1227
    161  CA        52.1410   -1.0490   43.8600 C.3   550  TYR550      0.1736
    162  C         53.4620   -1.8130   43.7410 C.2   550  TYR550      0.2596
    163  O         54.5320   -1.1940   43.7160 O.2   550  TYR550     -0.2718
    164  CB        52.3840    0.3170   44.5110 C.3   550  TYR550      0.0548
    165  CG        51.1680    1.2200   44.6070 C.ar  550  TYR550     -0.0200
    166  CD1       50.7390    1.9650   43.5110 C.ar  550  TYR550     -0.0009
    167  CD2       50.4650    1.3550   45.8120 C.ar  550  TYR550     -0.0009
    168  CE1       49.6380    2.8130   43.6000 C.ar  550  TYR550      0.0417
    169  CE2       49.3580    2.2050   45.9130 C.ar  550  TYR550      0.0417
    170  CZ        48.9510    2.9240   44.8000 C.ar  550  TYR550      0.1957
    171  OH        47.8640    3.7600   44.8750 O.3   550  TYR550     -0.2866
    172  N         53.3910   -3.1440   43.6470 N.am  551  SER551     -0.1952
    173  CA        54.5830   -3.9810   43.4430 C.3   551  SER551      0.1924
    174  C         55.5340   -3.3390   42.4430 C.2   551  SER551      0.2314
    175  O         55.1680   -3.1260   41.2920 O.2   551  SER551     -0.2863
    176  CB        54.2030   -5.3770   42.9380 C.3   551  SER551      0.2116
    177  OG        53.1760   -5.9540   43.7210 O.3   551  SER551     -0.2180
@<TRIPOS>BOND
     1    46    43    1
     2    46    47    1
     3    41    40    2
     4    43    42    1
     5    43    44    1
     6    40    42   am
     7    40    39    1
     8    45    44    2
     9    39    38    1
    10    44    50   am
    11    47    49   ar
    12    47    48   ar
    13   175   174    2
    14    38    32   am
    15    50    51    1
    16   174   173    1
    17   176   173    1
    18   176   177    1
    19    52    53    2
    20    52    51    1
    21    32    33    2
    22    32    31    1
    23    51    54    1
    24   173   172    1
    25   166   168   ar
    26   166   165   ar
    27   168   170   ar
    28   172   162   am
    29   163   162    2
    30    30    31    1
    31   162   161    1
    32   161   164    1
    33   161   160    1
    34    31    34    1
    35    10     8   ar
    36    10    11   ar
    37   164   165    1
    38     8     6   ar
    39   165   167   ar
    40    54    55    1
    41   170   171    1
    42   170   169   ar
    43    11     9   ar
    44    34    35    1
    45    55    56   ar
    46    55    57   ar
    47   167   169   ar
    48     6     5    1
    49     6     7   ar
    50     9     7   ar
    51   159   158    2
    52     5     2    1
    53    35    36    2
    54    35    37   am
    55     1     2    1
    56   147   146    2
    57   157   158    1
    58   157   156    1
    59     2     3    1
    60   146   156   am
    61   146   145    1
    62     3     4    2
    63   134   133    2
    64    63    62    1
    65    58    59    1
    66   148   145    1
    67   148   149    1
    68   135   133   am
    69    28    27    1
    70   145   144    1
    71    29    27    1
    72   133   132    1
    73    59    62    1
    74    59    60    1
    75    27    26    2
    76   149   151   ar
    77   149   150   ar
    78    69    68    1
    79   151   153   ar
    80   150   152   ar
    81    64    60   am
    82    64    65    1
    83   139   138    2
    84   144   138   am
    85    60    61    2
    86   132   131    1
    87   153   154   ar
    88   152   154   ar
    89   138   137    1
    90    65    68    1
    91    65    66    1
    92   131   128    1
    93    26    25    1
    94   154   155    1
    95    25    24    1
    96   128   129    1
    97   128   127    1
    98   136   137    1
    99   136   129   am
   100    24    23    1
   101   137   140    1
   102    66    70   am
   103    66    67    2
   104   129   130    2
   105    70    71    1
   106    73    72    2
   107    93    92    1
   108    23    20    1
   109   142   140    1
   110   140   141    1
   111    22    21    2
   112    94    92    1
   113    20    21    1
   114    20    19    1
   115    92    91    2
   116    71    72    1
   117    71    74    1
   118    75    74    1
   119   114   113    1
   120   141   143    1
   121   126   125    1
   122    91    90    1
   123    83    81    1
   124    82    81    1
   125    90    89    1
   126   113   112    1
   127    12    13    1
   128    12    18    1
   129   125   124   ar
   130   125   123   ar
   131    88    89    1
   132    88    85    1
   133    81    80    1
   134   112   111    1
   135    13    14    1
   136    13    16    1
   137   124   122   ar
   138    18    17    1
   139    15    14    2
   140   105   104    2
   141   111   108    1
   142    17    16    1
   143   123   121   ar
   144    80    77    1
   145    85    86    1
   146    85    84    1
   147    96    97    1
   148    96    95    1
   149   106   104   am
   150   104   103    1
   151   122   120   ar
   152    98    97    2
   153    97    99   am
   154    86    87    2
   155    77    78    1
   156    77    76    1
   157   121   120   ar
   158    99   100    1
   159   108   109    1
   160   108   107    1
   161   110   109    2
   162   120   119    1
   163   100   103    1
   164   100   101    1
   165    78    79    2
   166   109   115   am
   167   115   116    1
   168   119   116    1
   169   101   102    2
   170   116   117    1
   171   117   118    2
