@<TRIPOS>MOLECULE
tmp/3d29Y00.pdb
 132 123 0 0 0
SMALL
GASTEIGER

@<TRIPOS>ATOM
      1  N         56.9460 -152.4170    7.3750 N.3     1  THR1       -0.1218
      2  CA        57.1870 -153.4510    6.3390 C.3     1  THR1        0.1862
      3  C         56.5030 -153.1190    5.0390 C.2     1  THR1        0.2287
      4  O         55.3860 -152.5860    5.0280 O.2     1  THR1       -0.2866
      5  CB        56.6590 -154.8280    6.7600 C.3     1  THR1        0.1770
      6  OG1       57.5460 -155.3980    7.7160 O.3     1  THR1       -0.2211
      7  CG2       56.5860 -155.7680    5.5670 C.3     1  THR1        0.0375
      8  N         63.1490 -154.1570    7.3090 N.3    19  ARG19      -0.1231
      9  CA        63.0440 -153.5430    8.6250 C.3    19  ARG19       0.1694
     10  C         62.0780 -154.2280    9.5890 C.2    19  ARG19       0.2592
     11  O         61.0140 -154.7350    9.2030 O.2    19  ARG19      -0.2718
     12  CB        62.6690 -152.0620    8.5130 C.3    19  ARG19       0.0321
     13  CG        62.5460 -151.3900    9.8780 C.3    19  ARG19       0.0489
     14  CD        62.3350 -149.9040    9.7770 C.3    19  ARG19       0.2205
     15  NE        63.5370 -149.2270    9.3240 N.pl3  19  ARG19      -0.0865
     16  CZ        63.6200 -147.9180    9.1330 C.cat  19  ARG19       0.5346
     17  NH1       62.5610 -147.1520    9.3590 N.pl3  19  ARG19       0.1354
     18  NH2       64.7560 -147.3730    8.7140 N.pl3  19  ARG19       0.1354
     19  N         62.4790 -154.2430   10.8550 N.am   20  ALA20      -0.1966
     20  CA        61.6710 -154.8230   11.9160 C.3    20  ALA20       0.1728
     21  C         61.5960 -153.7630   13.0030 C.2    20  ALA20       0.2617
     22  O         62.5990 -153.1280   13.3350 O.2    20  ALA20      -0.2715
     23  CB        62.3190 -156.1000   12.4540 C.3    20  ALA20       0.0334
     24  N         60.4020 -153.5590   13.5430 N.am   21  THR21      -0.1937
     25  CA        60.2170 -152.5670   14.5920 C.3    21  THR21       0.2028
     26  C         59.3780 -153.1100   15.7300 C.2    21  THR21       0.2642
     27  O         58.6740 -154.1010   15.5880 O.2    21  THR21      -0.2714
     28  CB        59.5220 -151.2960   14.0500 C.3    21  THR21       0.1808
     29  OG1       58.2680 -151.6510   13.4560 O.3    21  THR21      -0.2208
     30  CG2       60.3960 -150.6120   13.0030 C.3    21  THR21       0.0379
     31  N         59.4870 -152.4550   16.8740 N.am   22  ALA22      -0.1977
     32  CA        58.7240 -152.7990   18.0630 C.3    22  ALA22       0.1597
     33  C         58.4220 -151.4020   18.5530 C.2    22  ALA22       0.2287
     34  O         59.2700 -150.7570   19.1770 O.2    22  ALA22      -0.2864
     35  CB        59.5900 -153.5510   19.0580 C.3    22  ALA22       0.0319
     36  N         64.0560 -152.4230   15.5900 N.3    27  ALA27      -0.1231
     37  CA        64.6570 -153.6210   16.1410 C.3    27  ALA27       0.1694
     38  C         65.7380 -154.1800   15.2240 C.2    27  ALA27       0.2592
     39  O         66.7360 -154.7360   15.6840 O.2    27  ALA27      -0.2718
     40  CB        63.5780 -154.6610   16.3630 C.3    27  ALA27       0.0304
     41  N         65.5370 -154.0280   13.9220 N.am   28  SER28      -0.1952
     42  CA        66.4830 -154.5650   12.9630 C.3    28  SER28       0.1924
     43  C         66.2740 -154.0190   11.5590 C.2    28  SER28       0.2314
     44  O         65.1650 -153.6230   11.1900 O.2    28  SER28      -0.2863
     45  CB        66.3560 -156.0940   12.9490 C.3    28  SER28       0.2116
     46  OG        66.9840 -156.6840   11.8250 O.3    28  SER28      -0.2180
     47  N         66.2780 -158.1540    8.3600 N.3    31  VAL31      -0.1245
     48  CA        65.3920 -159.3110    8.4200 C.3    31  VAL31       0.1561
     49  C         65.1280 -159.8590    7.0250 C.2    31  VAL31       0.2260
     50  O         64.9040 -159.0900    6.0950 O.2    31  VAL31      -0.2867
     51  CB        64.0260 -158.9380    9.0590 C.3    31  VAL31       0.0252
     52  CG1       63.1400 -160.1710    9.1530 C.3    31  VAL31       0.0019
     53  CG2       64.2460 -158.3130   10.4300 C.3    31  VAL31       0.0019
     54  N         62.6790 -161.1650    4.7770 N.3    33  LYS33      -0.1245
     55  CA        61.2330 -161.2680    4.6580 C.3    33  LYS33       0.1561
     56  C         60.7160 -162.1750    3.5520 C.2    33  LYS33       0.2260
     57  O         59.5080 -162.2850    3.3420 O.2    33  LYS33      -0.2867
     58  CB        60.6310 -159.8760    4.5250 C.3    33  LYS33       0.0271
     59  CG        60.8830 -159.0210    5.7440 C.3    33  LYS33       0.0035
     60  CD        60.2590 -157.6620    5.5910 C.3    33  LYS33       0.0206
     61  CE        60.5660 -156.8020    6.7960 C.3    33  LYS33       0.1093
     62  NZ        60.0330 -155.4390    6.6290 N.3    33  LYS33      -0.1314
     63  N         56.7880 -161.9900    3.8270 N.3    45  MET45      -0.1230
     64  CA        56.3220 -161.7640    5.1850 C.3    45  MET45       0.1702
     65  C         56.0610 -160.3210    5.6240 C.2    45  MET45       0.2592
     66  O         56.9100 -159.4420    5.4800 O.2    45  MET45      -0.2718
     67  CB        57.3120 -162.4120    6.1550 C.3    45  MET45       0.0401
     68  CG        57.5790 -163.8780    5.8900 C.3    45  MET45       0.0596
     69  SD        58.5940 -164.5600    7.1930 S.3    45  MET45      -0.1393
     70  CE        60.0790 -165.1420    6.3150 C.3    45  MET45       0.0692
     71  N         54.8710 -160.0960    6.1700 N.am   46  ALA46      -0.1966
     72  CA        54.4790 -158.7920    6.6930 C.3    46  ALA46       0.1728
     73  C         53.6060 -159.0470    7.9220 C.2    46  ALA46       0.2617
     74  O         52.8930 -160.0570    7.9830 O.2    46  ALA46      -0.2715
     75  CB        53.7020 -158.0070    5.6510 C.3    46  ALA46       0.0334
     76  N         53.6680 -158.1440    8.8970 N.am   47  GLY47      -0.1940
     77  CA        52.8790 -158.3010   10.1140 C.3    47  GLY47       0.2014
     78  C         53.7330 -158.7360   11.2900 C.2    47  GLY47       0.2639
     79  O         54.7900 -158.1540   11.5390 O.2    47  GLY47      -0.2714
     80  N         53.2800 -159.7570   12.0130 N.am   48  GLY48      -0.1939
     81  CA        54.0440 -160.2560   13.1430 C.3    48  GLY48       0.2014
     82  C         55.2120 -161.1190   12.6790 C.2    48  GLY48       0.2639
     83  O         55.0120 -162.1480   12.0250 O.2    48  GLY48      -0.2714
     84  N         56.4290 -160.6980   13.0150 N.am   49  ALA49      -0.1963
     85  CA        57.6490 -161.4120   12.6390 C.3    49  ALA49       0.1728
     86  C         57.5890 -162.8890   13.0040 C.2    49  ALA49       0.2616
     87  O         57.6100 -163.7590   12.1320 O.2    49  ALA49      -0.2715
     88  CB        58.8440 -160.7720   13.2980 C.3    49  ALA49       0.0334
     89  N         57.5230 -163.1800   14.2930 N.am   50  ALA50      -0.1977
     90  CA        57.4480 -164.5640   14.7320 C.3    50  ALA50       0.1597
     91  C         56.3060 -165.3140   14.0570 C.2    50  ALA50       0.2287
     92  O         56.4890 -166.4510   13.6520 O.2    50  ALA50      -0.2864
     93  CB        57.2920 -164.6330   16.2450 C.3    50  ALA50       0.0319
     94  N         54.7190 -164.8700   11.0350 N.3    52  CYS52      -0.1221
     95  CA        54.9860 -165.1880    9.6360 C.3    52  CYS52       0.1808
     96  C         56.0760 -166.2250    9.5090 C.2    52  CYS52       0.2601
     97  O         55.9150 -167.2980    8.9160 O.2    52  CYS52      -0.2717
     98  CB        55.4590 -163.9490    8.8890 C.3    52  CYS52       0.0970
     99  SG        54.1640 -162.7970    8.5610 S.3    52  CYS52      -0.0800
    100  N         57.2030 -165.8470   10.0750 N.am   53  GLN53      -0.1979
    101  CA        58.4130 -166.6230   10.0710 C.3    53  GLN53       0.1601
    102  C         58.2470 -168.0450   10.6250 C.2    53  GLN53       0.2287
    103  O         58.8060 -169.0010   10.0820 O.2    53  GLN53      -0.2864
    104  CB        59.4180 -165.7780   10.8290 C.3    53  GLN53       0.0394
    105  CG        60.7050 -166.3670   11.1750 C.3    53  GLN53       0.0908
    106  CD        61.5160 -165.3540   11.9520 C.2    53  GLN53       0.2608
    107  OE1       62.4380 -165.7100   12.7190 O.2    53  GLN53      -0.2717
    108  NE2       61.1850 -164.0750   11.7560 N.am   53  GLN53      -0.0878
    109  N         49.0380 -162.3670   13.5250 N.3    96  SER96      -0.1217
    110  CA        49.1260 -161.2180   12.6460 C.3    96  SER96       0.1889
    111  C         50.0370 -161.5010   11.4770 C.2    96  SER96       0.2288
    112  O         51.2620 -161.6170   11.6290 O.2    96  SER96      -0.2866
    113  CB        49.6350 -159.9960   13.3910 C.3    96  SER96       0.2089
    114  OG        49.7370 -158.8900   12.5140 O.3    96  SER96      -0.2183
    115  N         52.7100 -152.1650    6.2860 N.3   131  SER131     -0.1217
    116  CA        52.4940 -150.7910    6.6870 C.3   131  SER131      0.1889
    117  C         52.9320 -149.8300    5.5950 C.2   131  SER131      0.2288
    118  O         52.6060 -148.6420    5.6420 O.2   131  SER131     -0.2866
    119  CB        53.2570 -150.4890    7.9680 C.3   131  SER131      0.2089
    120  OG        54.6280 -150.7470    7.7990 O.3   131  SER131     -0.2183
    121  N         58.0270 -147.1780    9.2730 N.3   170  TYR170     -0.1241
    122  CA        58.1640 -148.5820    9.6400 C.3   170  TYR170      0.1605
    123  C         58.7760 -149.5130    8.5780 C.2   170  TYR170      0.2264
    124  O         58.8420 -150.7250    8.7580 O.2   170  TYR170     -0.2867
    125  CB        56.8000 -149.0830   10.1310 C.3   170  TYR170      0.0534
    126  CG        56.3720 -148.3360   11.3740 C.ar  170  TYR170     -0.0201
    127  CD1       57.1660 -148.3610   12.5250 C.ar  170  TYR170     -0.0009
    128  CD2       55.2290 -147.5410   11.3850 C.ar  170  TYR170     -0.0009
    129  CE1       56.8410 -147.6060   13.6510 C.ar  170  TYR170      0.0417
    130  CE2       54.8920 -146.7770   12.5180 C.ar  170  TYR170      0.0417
    131  CZ        55.7070 -146.8190   13.6440 C.ar  170  TYR170      0.1957
    132  OH        55.4060 -146.0720   14.7620 O.3   170  TYR170     -0.2866
@<TRIPOS>BOND
     1    57    56    2
     2    56    55    1
     3    63    64    1
     4    58    55    1
     5    58    59    1
     6    55    54    1
     7     4     3    2
     8     3     2    1
     9    64    65    1
    10    64    67    1
    11    66    65    2
    12     7     5    1
    13    60    59    1
    14    60    61    1
    15   117   118    2
    16   117   116    1
    17    65    71   am
    18    75    72    1
    19    68    67    1
    20    68    69    1
    21    50    49    2
    22    71    72    1
    23   115   116    1
    24    70    69    1
    25     2     5    1
    26     2     1    1
    27    62    61    1
    28   116   119    1
    29    72    73    1
    30     5     6    1
    31    49    48    1
    32     8     9    1
    33   120   119    1
    34    73    74    2
    35    73    76   am
    36    47    48    1
    37    48    51    1
    38    12     9    1
    39    12    13    1
    40    99    98    1
    41   123   124    2
    42   123   122    1
    43     9    10    1
    44    18    16    1
    45    98    95    1
    46    76    77    1
    47    97    96    2
    48    51    52    1
    49    51    53    1
    50    16    15    2
    51    16    17    1
    52    11    10    2
    53   121   122    1
    54    15    14    1
    55    96    95    1
    56    96   100   am
    57    10    19   am
    58    95    94    1
    59   122   125    1
    60    14    13    1
    61   101   100    1
    62   101   102    1
    63   101   104    1
    64   103   102    2
    65    77    78    1
    66   125   126    1
    67   104   105    1
    68    19    20    1
    69   105   106    1
    70    44    43    2
    71    78    79    2
    72    78    80   am
    73   126   128   ar
    74   126   127   ar
    75   128   130   ar
    76   111   112    2
    77   111   110    1
    78    43    42    1
    79   108   106   am
    80    46    45    1
    81    20    23    1
    82    20    21    1
    83   106   107    2
    84    80    81    1
    85    83    82    2
    86    87    86    2
    87   114   113    1
    88   130   131   ar
    89   127   129   ar
    90    85    86    1
    91    85    84    1
    92    85    88    1
    93   110   113    1
    94   110   109    1
    95    82    84   am
    96    82    81    1
    97    45    42    1
    98    42    41    1
    99    30    28    1
   100    21    22    2
   101    21    24   am
   102    86    89   am
   103    29    28    1
   104    24    25    1
   105   131   129   ar
   106   131   132    1
   107    92    91    2
   108    41    38   am
   109    28    25    1
   110    91    90    1
   111    89    90    1
   112    25    26    1
   113    90    93    1
   114    38    39    2
   115    38    37    1
   116    27    26    2
   117    36    37    1
   118    26    31   am
   119    37    40    1
   120    31    32    1
   121    32    33    1
   122    32    35    1
   123    33    34    2
