@<TRIPOS>MOLECULE
tmp/3d29H00.pdb
 135 126 0 0 0
SMALL
GASTEIGER

@<TRIPOS>ATOM
      1  N         64.5690 -139.7310   44.7500 N.3     1  THR1       -0.1218
      2  CA        65.0220 -138.6170   45.6090 C.3     1  THR1        0.1862
      3  C         65.0630 -139.0260   47.0600 C.2     1  THR1        0.2287
      4  O         64.1660 -139.7250   47.5480 O.2     1  THR1       -0.2866
      5  CB        64.0810 -137.3990   45.5450 C.3     1  THR1        0.1770
      6  OG1       64.2900 -136.6910   44.3310 O.3     1  THR1       -0.2211
      7  CG2       64.3420 -136.4410   46.6880 C.3     1  THR1        0.0375
      8  N         69.9730 -137.0290   42.1200 N.3    19  ARG19      -0.1231
      9  CA        69.4210 -137.6940   40.9340 C.3    19  ARG19       0.1694
     10  C         68.0230 -137.2200   40.5350 C.2    19  ARG19       0.2593
     11  O         67.1450 -137.0130   41.3780 O.2    19  ARG19      -0.2718
     12  CB        69.3890 -139.2110   41.1250 C.3    19  ARG19       0.0321
     13  CG        68.7480 -139.9570   39.9620 C.3    19  ARG19       0.0489
     14  CD        68.8140 -141.4620   40.1410 C.3    19  ARG19       0.2205
     15  NE        70.1830 -141.9780   40.0970 N.pl3  19  ARG19      -0.0865
     16  CZ        70.4950 -143.2700   40.1460 C.cat  19  ARG19       0.5346
     17  NH1       69.5370 -144.1830   40.2350 N.pl3  19  ARG19       0.1354
     18  NH2       71.7640 -143.6450   40.1320 N.pl3  19  ARG19       0.1354
     19  N         67.8430 -137.0630   39.2280 N.am   20  SER20      -0.1938
     20  CA        66.5880 -136.6290   38.6350 C.3    20  SER20       0.2055
     21  C         66.2070 -137.7360   37.6530 C.2    20  SER20       0.2644
     22  O         67.0790 -138.2640   36.9740 O.2    20  SER20      -0.2714
     23  CB        66.8250 -135.3200   37.8940 C.3    20  SER20       0.2130
     24  OG        65.6230 -134.8150   37.3640 O.3    20  SER20      -0.2179
     25  N         64.9270 -138.0990   37.5730 N.am   21  THR21      -0.1936
     26  CA        64.5130 -139.1660   36.6540 C.3    21  THR21       0.2028
     27  C         63.2450 -138.9270   35.8360 C.2    21  THR21       0.2642
     28  O         62.3840 -138.1350   36.2060 O.2    21  THR21      -0.2714
     29  CB        64.2990 -140.5130   37.3950 C.3    21  THR21       0.1808
     30  OG1       63.3200 -140.3450   38.4330 O.3    21  THR21      -0.2208
     31  CG2       65.6040 -141.0230   37.9830 C.3    21  THR21       0.0379
     32  N         63.1540 -139.6300   34.7090 N.am   22  GLN22      -0.1976
     33  CA        61.9950 -139.5950   33.8110 C.3    22  GLN22       0.1601
     34  C         61.8610 -141.0820   33.5520 C.2    22  GLN22       0.2287
     35  O         62.5800 -141.6580   32.7350 O.2    22  GLN22      -0.2864
     36  CB        62.2960 -138.8710   32.4900 C.3    22  GLN22       0.0394
     37  CG        63.3850 -137.7970   32.5810 C.3    22  GLN22       0.0908
     38  CD        63.7460 -137.1540   31.2260 C.2    22  GLN22       0.2608
     39  OE1       63.0030 -136.3040   30.6980 O.2    22  GLN22      -0.2717
     40  NE2       64.8920 -137.5610   30.6610 N.am   22  GLN22      -0.0878
     41  N         67.6220 -138.2540   34.3250 N.3    27  ALA27      -0.1231
     42  CA        67.5110 -137.0190   33.5600 C.3    27  ALA27       0.1694
     43  C         68.6770 -136.0930   33.8720 C.2    27  ALA27       0.2592
     44  O         69.2360 -135.4610   32.9830 O.2    27  ALA27      -0.2718
     45  CB        66.1770 -136.3180   33.8830 C.3    27  ALA27       0.0304
     46  N         69.0290 -136.0170   35.1480 N.am   28  ASP28      -0.1974
     47  CA        70.1250 -135.1810   35.6080 C.3    28  ASP28       0.1709
     48  C         70.8380 -135.9550   36.7140 C.2    28  ASP28       0.2293
     49  O         70.2150 -136.3820   37.7010 O.2    28  ASP28      -0.2864
     50  CB        69.5790 -133.8560   36.1410 C.3    28  ASP28       0.1436
     51  CG        70.6670 -132.8270   36.3970 C.2    28  ASP28       0.3671
     52  OD1       70.3080 -131.6350   36.5580 O.co2  28  ASP28      -0.2456
     53  OD2       71.8660 -133.1990   36.4420 O.co2  28  ASP28      -0.2456
     54  N         71.4990 -132.6620   39.9710 N.3    31  CYS31      -0.1221
     55  CA        70.6960 -131.4610   40.1340 C.3    31  CYS31       0.1808
     56  C         70.7860 -131.0790   41.6060 C.2    31  CYS31       0.2601
     57  O         71.2450 -131.8720   42.4240 O.2    31  CYS31      -0.2717
     58  CB        69.2410 -131.7060   39.7210 C.3    31  CYS31       0.0970
     59  SG        68.4110 -133.0350   40.6000 S.3    31  CYS31      -0.0800
     60  N         70.3670 -129.8610   41.9380 N.am   32  ALA32      -0.1965
     61  CA        70.4120 -129.3840   43.3180 C.3    32  ALA32       0.1728
     62  C         69.0100 -129.3770   43.9160 C.2    32  ALA32       0.2616
     63  O         68.1630 -128.5950   43.5030 O.2    32  ALA32      -0.2715
     64  CB        71.0100 -127.9860   43.3610 C.3    32  ALA32       0.0334
     65  N         68.7650 -130.2400   44.8930 N.am   33  LYS33      -0.1977
     66  CA        67.4460 -130.3130   45.4980 C.3    33  LYS33       0.1596
     67  C         67.3260 -129.4270   46.7280 C.2    33  LYS33       0.2287
     68  O         66.3100 -129.4540   47.4300 O.2    33  LYS33      -0.2864
     69  CB        67.1250 -131.7700   45.8420 C.3    33  LYS33       0.0298
     70  CG        67.2830 -132.7110   44.6490 C.3    33  LYS33       0.0038
     71  CD        66.8930 -134.1590   44.9640 C.3    33  LYS33       0.0206
     72  CE        67.1930 -135.0670   43.7730 C.3    33  LYS33       0.1093
     73  NZ        66.8140 -136.4850   44.0150 N.3    33  LYS33      -0.1314
     74  N         67.0820 -125.6870   48.1100 N.3    35  HIS35      -0.1241
     75  CA        66.6980 -124.3420   47.6920 C.3    35  HIS35       0.1621
     76  C         66.7300 -123.3520   48.8440 C.2    35  HIS35       0.2264
     77  O         66.3920 -123.6930   49.9690 O.2    35  HIS35      -0.2867
     78  CB        65.2750 -124.3530   47.1170 C.3    35  HIS35       0.0745
     79  CG        64.9900 -125.5080   46.2060 C.ar   35  HIS35       0.0817
     80  ND1       65.5380 -125.6200   44.9450 N.ar   35  HIS35      -0.2268
     81  CD2       64.2220 -126.6110   46.3800 C.ar   35  HIS35       0.1154
     82  CE1       65.1200 -126.7410   44.3830 C.ar   35  HIS35       0.1986
     83  NE2       64.3210 -127.3610   45.2320 N.ar   35  HIS35      -0.2212
     84  N         63.7090 -130.2600   48.4570 N.3    45  GLY45      -0.1225
     85  CA        62.5140 -130.6400   47.7230 C.3    45  GLY45       0.1811
     86  C         62.5090 -131.9580   46.9800 C.2    45  GLY45       0.2280
     87  O         63.4850 -132.3350   46.3280 O.2    45  GLY45      -0.2866
     88  N         59.6750 -134.8790   44.7560 N.3    47  GLY47      -0.1210
     89  CA        58.4420 -134.9320   43.9940 C.3    47  GLY47       0.1956
     90  C         58.6370 -134.4170   42.5840 C.2    47  GLY47       0.2613
     91  O         59.6420 -134.7310   41.9460 O.2    47  GLY47      -0.2717
     92  N         57.6900 -133.6210   42.0900 N.am   48  THR48      -0.1938
     93  CA        57.7980 -133.0930   40.7370 C.3    48  THR48       0.2028
     94  C         58.7660 -131.9250   40.7160 C.2    48  THR48       0.2642
     95  O         58.4710 -130.8370   41.1970 O.2    48  THR48      -0.2714
     96  CB        56.4240 -132.6600   40.1920 C.3    48  THR48       0.1808
     97  OG1       55.5510 -133.7950   40.1680 O.3    48  THR48      -0.2208
     98  CG2       56.5440 -132.1140   38.7790 C.3    48  THR48       0.0379
     99  N         59.9350 -132.1780   40.1480 N.am   49  ALA49      -0.1963
    100  CA        60.9960 -131.1900   40.0570 C.3    49  ALA49       0.1728
    101  C         60.5350 -129.7440   39.8450 C.2    49  ALA49       0.2616
    102  O         60.7180 -128.8960   40.7170 O.2    49  ALA49      -0.2715
    103  CB        61.9630 -131.6000   38.9590 C.3    49  ALA49       0.0334
    104  N         59.9350 -129.4570   38.6960 N.am   50  ALA50      -0.1977
    105  CA        59.4930 -128.0990   38.4080 C.3    50  ALA50       0.1597
    106  C         58.5670 -127.5190   39.4820 C.2    50  ALA50       0.2287
    107  O         58.6030 -126.3170   39.7550 O.2    50  ALA50      -0.2864
    108  CB        58.8230 -128.0440   37.0340 C.3    50  ALA50       0.0319
    109  N         58.5370 -128.2920   42.8450 N.3    52  THR52      -0.1218
    110  CA        59.2780 -127.9240   44.0390 C.3    52  THR52       0.1862
    111  C         60.0080 -126.6050   43.7700 C.2    52  THR52       0.2287
    112  O         59.9970 -125.7040   44.6070 O.2    52  THR52      -0.2866
    113  CB        60.3090 -129.0070   44.4560 C.3    52  THR52       0.1770
    114  OG1       61.2870 -129.1680   43.4230 O.3    52  THR52      -0.2211
    115  CG2       59.6220 -130.3310   44.7070 C.3    52  THR52       0.0375
    116  N         47.5660 -130.8410   43.4580 N.3    93  HIS93      -0.1241
    117  CA        47.9710 -130.9320   42.0610 C.3    93  HIS93       0.1621
    118  C         49.4010 -130.4690   41.8530 C.2    93  HIS93       0.2264
    119  O         50.0250 -130.8160   40.8600 O.2    93  HIS93      -0.2867
    120  CB        47.0060 -130.1620   41.1620 C.3    93  HIS93       0.0745
    121  CG        45.6200 -130.7290   41.1630 C.ar   93  HIS93       0.0817
    122  ND1       45.3590 -132.0510   40.8690 N.ar   93  HIS93      -0.2268
    123  CD2       44.4290 -130.1770   41.4930 C.ar   93  HIS93       0.1154
    124  CE1       44.0700 -132.2900   41.0240 C.ar   93  HIS93       0.1986
    125  NE2       43.4820 -131.1690   41.4050 N.ar   93  HIS93      -0.2212
    126  N         61.4030 -140.9910   47.3350 N.3   129  SER129     -0.1217
    127  CA        61.3910 -142.4340   47.1570 C.3   129  SER129      0.1889
    128  C         62.4140 -143.1400   48.0680 C.2   129  SER129      0.2288
    129  O         62.2360 -144.3120   48.4090 O.2   129  SER129     -0.2866
    130  CB        61.6380 -142.7770   45.6840 C.3   129  SER129      0.2089
    131  OG        62.8060 -142.1450   45.1970 O.3   129  SER129     -0.2183
    132  N         65.5320 -144.6580   42.6480 N.3   168  GLY168     -0.1225
    133  CA        65.1150 -143.3000   42.3430 C.3   168  GLY168      0.1811
    134  C         66.1050 -142.2870   42.8790 C.2   168  GLY168      0.2280
    135  O         65.9780 -141.0800   42.6450 O.2   168  GLY168     -0.2866
@<TRIPOS>BOND
     1    40    38   am
     2    39    38    2
     3    38    37    1
     4    36    37    1
     5    36    33    1
     6    35    34    2
     7    44    43    2
     8    34    33    1
     9    42    43    1
    10    42    45    1
    11    42    41    1
    12    33    32    1
    13    43    46   am
    14    32    27   am
    15    46    47    1
    16    47    50    1
    17    47    48    1
    18    27    28    2
    19    27    26    1
    20    50    51    1
    21    51    53   ar
    22    51    52   ar
    23    26    29    1
    24    26    25    1
    25    48    49    2
    26    22    21    2
    27   108   105    1
    28    24    23    1
    29    29    31    1
    30    29    30    1
    31    25    21   am
    32    21    20    1
    33    23    20    1
    34   105   104    1
    35   105   106    1
    36    20    19    1
    37   104   101   am
    38    98    96    1
    39   103   100    1
    40    19    10   am
    41   106   107    2
    42    58    55    1
    43    58    59    1
    44   101   100    1
    45   101   102    2
    46    13    14    1
    47    13    12    1
    48    54    55    1
    49   100    99    1
    50    15    14    1
    51    15    16    2
    52    18    16    1
    53    55    56    1
    54    16    17    1
    55    99    94   am
    56    97    96    1
    57    96    93    1
    58    10     9    1
    59    10    11    2
    60    94    93    1
    61    94    95    2
    62    93    92    1
    63   119   118    2
    64   122   124   ar
    65   122   121   ar
    66     9    12    1
    67     9     8    1
    68   124   125   ar
    69   120   121    1
    70   120   117    1
    71   121   123   ar
    72   125   123   ar
    73    56    60   am
    74    56    57    2
    75   118   117    1
    76    60    61    1
    77    91    90    2
    78   117   116    1
    79    92    90   am
    80   133   132    1
    81   133   134    1
    82    90    89    1
    83   135   134    2
    84   109   110    1
    85    61    64    1
    86    61    62    1
    87   114   113    1
    88    63    62    2
    89   111   110    1
    90   111   112    2
    91    72    73    1
    92    72    71    1
    93    62    65   am
    94    89    88    1
    95   110   113    1
    96     6     5    1
    97    82    80   ar
    98    82    83   ar
    99   113   115    1
   100    70    71    1
   101    70    69    1
   102     1     2    1
   103    65    66    1
   104    80    79   ar
   105   131   130    1
   106    83    81   ar
   107    66    69    1
   108    66    67    1
   109     5     2    1
   110     5     7    1
   111     2     3    1
   112   130   127    1
   113    79    81   ar
   114    79    78    1
   115    87    86    2
   116    67    68    2
   117    86    85    1
   118     3     4    2
   119    78    75    1
   120   127   126    1
   121   127   128    1
   122    75    74    1
   123    75    76    1
   124    85    84    1
   125   128   129    2
   126    76    77    2
