@<TRIPOS>MOLECULE
tmp/3d29L00.pdb
 79 79 0 0 0
SMALL
GASTEIGER

@<TRIPOS>ATOM
      1  N          4.1150 -137.5760   34.2930 N.3    56  GLY56      -0.1210
      2  CA         5.4210 -138.2180   34.2380 C.3    56  GLY56       0.1956
      3  C          6.1130 -138.0490   35.5810 C.2    56  GLY56       0.2611
      4  O          5.7060 -138.6430   36.5810 O.2    56  GLY56      -0.2717
      5  N          7.1760 -137.2540   35.6110 N.am   57  PHE57      -0.1976
      6  CA         7.8630 -136.9850   36.8570 C.3    57  PHE57       0.1639
      7  C          6.9920 -135.8820   37.4560 C.2    57  PHE57       0.2290
      8  O          6.9810 -134.7640   36.9580 O.2    57  PHE57      -0.2864
      9  CB         9.2920 -136.4970   36.5650 C.3    57  PHE57       0.0560
     10  CG        10.0650 -136.0650   37.7880 C.ar   57  PHE57      -0.0200
     11  CD1        9.9700 -136.7690   38.9850 C.ar   57  PHE57      -0.0042
     12  CD2       10.9130 -134.9650   37.7270 C.ar   57  PHE57      -0.0042
     13  CE1       10.7150 -136.3820   40.1030 C.ar   57  PHE57      -0.0003
     14  CE2       11.6600 -134.5710   38.8390 C.ar   57  PHE57      -0.0003
     15  CZ        11.5570 -135.2820   40.0300 C.ar   57  PHE57      -0.0000
     16  N         15.2870 -131.1420   30.2170 N.3   104  PRO104     -0.2116
     17  CA        13.8380 -131.3250   30.0680 C.3   104  PRO104      0.1372
     18  C         12.9870 -131.6670   31.2650 C.2   104  PRO104      0.2244
     19  O         13.4490 -132.2560   32.2420 O.2   104  PRO104     -0.2868
     20  CB        13.7190 -132.4350   29.0100 C.3   104  PRO104      0.0268
     21  CG        15.0850 -132.5400   28.3990 C.3   104  PRO104      0.0207
     22  CD        15.9910 -132.2490   29.5480 C.3   104  PRO104      0.0892
     23  N         10.4520 -133.9980   32.5640 N.3   106  TYR106     -0.1227
     24  CA        10.0940 -135.3590   32.1870 C.3   106  TYR106      0.1736
     25  C          8.5940 -135.5520   32.2270 C.2   106  TYR106      0.2595
     26  O          8.0820 -136.3060   33.0530 O.2   106  TYR106     -0.2718
     27  CB        10.7650 -136.3710   33.1170 C.3   106  TYR106      0.0548
     28  CG        12.0570 -136.9550   32.5840 C.ar  106  TYR106     -0.0200
     29  CD1       12.9760 -136.1620   31.8860 C.ar  106  TYR106     -0.0009
     30  CD2       12.3840 -138.2940   32.8120 C.ar  106  TYR106     -0.0009
     31  CE1       14.1900 -136.6880   31.4200 C.ar  106  TYR106      0.0417
     32  CE2       13.5990 -138.8340   32.3560 C.ar  106  TYR106      0.0417
     33  CZ        14.4980 -138.0220   31.6600 C.ar  106  TYR106      0.1957
     34  OH        15.6860 -138.5360   31.1850 O.3   106  TYR106     -0.2866
     35  N          7.8930 -134.8700   31.3290 N.am  107  VAL107     -0.1966
     36  CA         6.4450 -134.9840   31.2600 C.3   107  VAL107      0.1727
     37  C          5.8850 -135.0260   29.8570 C.2   107  VAL107      0.2616
     38  O          6.4770 -134.5270   28.9070 O.2   107  VAL107     -0.2715
     39  CB         5.7400 -133.8290   31.9830 C.3   107  VAL107      0.0290
     40  CG1        6.0280 -133.8920   33.4590 C.3   107  VAL107      0.0023
     41  CG2        6.2010 -132.5030   31.4100 C.3   107  VAL107      0.0023
     42  N          4.7250 -135.6560   29.7600 N.am  108  HIS108     -0.1973
     43  CA         3.9490 -135.7730   28.5290 C.3   108  HIS108      0.1656
     44  C          2.7340 -134.9360   28.9090 C.2   108  HIS108      0.2291
     45  O          1.9910 -135.2970   29.8170 O.2   108  HIS108     -0.2864
     46  CB         3.5550 -137.2320   28.2940 C.3   108  HIS108      0.0771
     47  CG         4.7040 -138.0990   27.8890 C.ar  108  HIS108      0.0820
     48  ND1        5.2740 -138.0340   26.6380 N.ar  108  HIS108     -0.2267
     49  CD2        5.4310 -138.9990   28.5910 C.ar  108  HIS108      0.1154
     50  CE1        6.3060 -138.8560   26.5820 C.ar  108  HIS108      0.1986
     51  NE2        6.4230 -139.4520   27.7550 N.ar  108  HIS108     -0.2212
     52  N          5.3040 -132.8990   23.4020 N.3   126  ASP126     -0.1225
     53  CA         6.5370 -133.6740   23.4860 C.3   126  ASP126      0.1790
     54  C          7.1450 -133.2520   24.8100 C.2   126  ASP126      0.2440
     55  O          6.7780 -132.2060   25.3580 O.2   126  ASP126     -0.2733
     56  CB         7.5240 -133.1800   22.4230 C.3   126  ASP126      0.1423
     57  CG         8.1730 -134.2810   21.6990 C.2   126  ASP126      0.3668
     58  OD1        9.1590 -134.0410   20.9780 O.co2 126  ASP126     -0.2456
     59  OD2        7.6790 -135.4080   21.8420 O.co2 126  ASP126     -0.2456
     60  N          8.0750 -134.0590   25.3500 N.am  127  PRO127     -0.2718
     61  CA         8.6820 -133.6310   26.6060 C.3   127  PRO127      0.1535
     62  C          9.4780 -132.3600   26.2840 C.2   127  PRO127      0.2598
     63  O          9.7130 -131.5290   27.1540 O.2   127  PRO127     -0.2715
     64  CB         9.5610 -134.8100   26.9690 C.3   127  PRO127      0.0310
     65  CG         8.7320 -135.9700   26.5020 C.3   127  PRO127      0.0237
     66  CD         8.2760 -135.5070   25.1440 C.3   127  PRO127      0.0939
     67  N          9.8780 -132.1940   25.0270 N.am  128  VAL128     -0.1978
     68  CA        10.5950 -130.9830   24.6650 C.3   128  VAL128      0.1596
     69  C          9.8220 -129.9640   23.8290 C.2   128  VAL128      0.2287
     70  O         10.4310 -129.0970   23.1960 O.2   128  VAL128     -0.2864
     71  CB        11.9250 -131.2650   23.9560 C.3   128  VAL128      0.0276
     72  CG1       12.9610 -131.6480   24.9820 C.3   128  VAL128      0.0022
     73  CG2       11.7500 -132.3310   22.9000 C.3   128  VAL128      0.0022
     74  N          7.3220 -130.4520   21.0830 N.3   130  SER130     -0.1217
     75  CA         6.6330 -130.6880   19.8250 C.3   130  SER130      0.1889
     76  C          5.1500 -130.9250   20.1060 C.2   130  SER130      0.2288
     77  O          4.8010 -131.8010   20.8970 O.2   130  SER130     -0.2866
     78  CB         7.2250 -131.8890   19.1160 C.3   130  SER130      0.2089
     79  OG         6.7090 -131.9770   17.8130 O.3   130  SER130     -0.2183
@<TRIPOS>BOND
     1    79    78    1
     2    78    75    1
     3    75    76    1
     4    75    74    1
     5    76    77    2
     6    58    57   ar
     7    57    59   ar
     8    57    56    1
     9    56    53    1
    10    73    71    1
    11    70    69    2
    12    52    53    1
    13    53    54    1
    14    69    68    1
    15    71    68    1
    16    71    72    1
    17    68    67    1
    18    54    60   am
    19    54    55    2
    20    67    62   am
    21    66    60    1
    22    66    65    1
    23    60    61    1
    24    62    61    1
    25    62    63    2
    26    65    64    1
    27    50    48   ar
    28    50    51   ar
    29    61    64    1
    30    48    47   ar
    31    51    49   ar
    32    47    46    1
    33    47    49   ar
    34    46    43    1
    35    21    20    1
    36    21    22    1
    37    43    44    1
    38    43    42    1
    39    38    37    2
    40    44    45    2
    41    20    17    1
    42    22    16    1
    43    42    37   am
    44    37    36    1
    45    17    16    1
    46    17    18    1
    47    34    33    1
    48    36    35    1
    49    36    39    1
    50    18    19    2
    51    35    25   am
    52    41    39    1
    53    31    33   ar
    54    31    29   ar
    55    33    32   ar
    56    29    28   ar
    57    39    40    1
    58    24    25    1
    59    24    23    1
    60    24    27    1
    61    25    26    2
    62    32    30   ar
    63    28    30   ar
    64    28    27    1
    65     2     1    1
    66     2     3    1
    67     3     5   am
    68     3     4    2
    69     5     6    1
    70     9     6    1
    71     9    10    1
    72     6     7    1
    73     8     7    2
    74    12    10   ar
    75    12    14   ar
    76    10    11   ar
    77    14    15   ar
    78    11    13   ar
    79    15    13   ar
