@<TRIPOS>MOLECULE
tmp/3d29I00.pdb
 89 87 0 0 0
SMALL
GASTEIGER

@<TRIPOS>ATOM
      1  N         51.8540 -124.7070   33.2910 N.3    98  ARG98      -0.1231
      2  CA        51.9720 -125.9080   34.1130 C.3    98  ARG98       0.1694
      3  C         50.8800 -126.9650   33.9560 C.2    98  ARG98       0.2592
      4  O         51.1800 -128.1640   33.9250 O.2    98  ARG98      -0.2718
      5  CB        52.0530 -125.5140   35.5930 C.3    98  ARG98       0.0321
      6  CG        52.0150 -126.6920   36.5720 C.3    98  ARG98       0.0489
      7  CD        53.1950 -127.6220   36.3510 C.3    98  ARG98       0.2205
      8  NE        53.1950 -128.7370   37.2920 N.pl3  98  ARG98      -0.0865
      9  CZ        52.4070 -129.8050   37.2000 C.cat  98  ARG98       0.5346
     10  NH1       52.4800 -130.7680   38.1110 N.pl3  98  ARG98       0.1354
     11  NH2       51.5570 -129.9230   36.1910 N.pl3  98  ARG98       0.1354
     12  N         49.6210 -126.5400   33.8710 N.am   99  PHE99      -0.1976
     13  CA        48.5320 -127.5080   33.7630 C.3    99  PHE99       0.1639
     14  C         47.9230 -127.7300   32.3780 C.2    99  PHE99       0.2290
     15  O         46.9010 -128.3960   32.2400 O.2    99  PHE99      -0.2864
     16  CB        47.4510 -127.1770   34.7930 C.3    99  PHE99       0.0560
     17  CG        47.9340 -127.2860   36.2160 C.ar   99  PHE99      -0.0200
     18  CD1       48.1270 -126.1490   36.9950 C.ar   99  PHE99      -0.0042
     19  CD2       48.2590 -128.5290   36.7610 C.ar   99  PHE99      -0.0042
     20  CE1       48.6340 -126.2460   38.2860 C.ar   99  PHE99      -0.0003
     21  CE2       48.7700 -128.6360   38.0590 C.ar   99  PHE99      -0.0003
     22  CZ        48.9590 -127.4900   38.8200 C.ar   99  PHE99      -0.0000
     23  N         50.4820 -127.7130   29.4710 N.3   101  PRO101     -0.2116
     24  CA        51.7930 -127.5180   28.8530 C.3   101  PRO101      0.1372
     25  C         51.9550 -127.7060   27.3600 C.2   101  PRO101      0.2244
     26  O         51.1820 -128.3920   26.6970 O.2   101  PRO101     -0.2868
     27  CB        52.6630 -128.4970   29.6250 C.3   101  PRO101      0.0268
     28  CG        51.7230 -129.6830   29.7470 C.3   101  PRO101      0.0207
     29  CD        50.4220 -129.0220   30.1550 C.3   101  PRO101      0.0892
     30  N         53.8660 -129.3770   24.4720 N.3   103  PHE103     -0.1241
     31  CA        54.5250 -130.6680   24.4380 C.3   103  PHE103      0.1605
     32  C         55.8450 -130.5650   23.6940 C.2   103  PHE103      0.2264
     33  O         55.9530 -130.9500   22.5330 O.2   103  PHE103     -0.2867
     34  CB        53.5810 -131.6710   23.8000 C.3   103  PHE103      0.0534
     35  CG        52.2850 -131.7990   24.5400 C.ar  103  PHE103     -0.0203
     36  CD1       52.2250 -132.4970   25.7590 C.ar  103  PHE103     -0.0042
     37  CD2       51.1340 -131.1630   24.0720 C.ar  103  PHE103     -0.0042
     38  CE1       51.0390 -132.5590   26.4970 C.ar  103  PHE103     -0.0003
     39  CE2       49.9380 -131.2160   24.8040 C.ar  103  PHE103     -0.0003
     40  CZ        49.8910 -131.9120   26.0180 C.ar  103  PHE103     -0.0000
     41  N         65.3180 -128.9070   29.3350 N.3   123  PHE123     -0.1227
     42  CA        64.0970 -128.6680   30.1050 C.3   123  PHE123      0.1736
     43  C         63.0790 -129.7830   29.8970 C.2   123  PHE123      0.2595
     44  O         63.0290 -130.3860   28.8250 O.2   123  PHE123     -0.2718
     45  CB        63.3980 -127.3890   29.6400 C.3   123  PHE123      0.0547
     46  CG        64.3040 -126.2200   29.4510 C.ar  123  PHE123     -0.0202
     47  CD1       64.3750 -125.2150   30.4150 C.ar  123  PHE123     -0.0042
     48  CD2       65.0850 -126.1110   28.2990 C.ar  123  PHE123     -0.0042
     49  CE1       65.2130 -124.1130   30.2370 C.ar  123  PHE123     -0.0003
     50  CE2       65.9280 -125.0140   28.1100 C.ar  123  PHE123     -0.0003
     51  CZ        65.9920 -124.0110   29.0820 C.ar  123  PHE123     -0.0000
     52  N         62.2610 -130.0550   30.9100 N.am  124  ASP124     -0.1960
     53  CA        61.2010 -131.0300   30.7310 C.3   124  ASP124      0.1840
     54  C         60.0330 -130.1490   30.2430 C.2   124  ASP124      0.2622
     55  O         60.1750 -128.9180   30.1900 O.2   124  ASP124     -0.2715
     56  CB        60.9000 -131.7970   32.0330 C.3   124  ASP124      0.1450
     57  CG        60.2980 -130.9320   33.1390 C.2   124  ASP124      0.3671
     58  OD1       60.1390 -131.4910   34.2450 O.co2 124  ASP124     -0.2456
     59  OD2       59.9800 -129.7370   32.9300 O.co2 124  ASP124     -0.2456
     60  N         58.8920 -130.7290   29.8870 N.am  125  LEU125     -0.1963
     61  CA        57.8260 -129.8950   29.3380 C.3   125  LEU125      0.1728
     62  C         57.2520 -128.8040   30.2260 C.2   125  LEU125      0.2616
     63  O         56.6650 -127.8540   29.7080 O.2   125  LEU125     -0.2715
     64  CB        56.6890 -130.7530   28.7560 C.3   125  LEU125      0.0311
     65  CG        55.5820 -131.2900   29.6600 C.3   125  LEU125      0.0022
     66  CD1       54.5010 -131.9400   28.7950 C.3   125  LEU125      0.0001
     67  CD2       56.1710 -132.2820   30.6580 C.3   125  LEU125      0.0001
     68  N         57.3960 -128.9060   31.5450 N.am  126  ILE126     -0.1977
     69  CA        56.8630 -127.8290   32.3690 C.3   126  ILE126      0.1596
     70  C         57.9440 -126.9240   32.9510 C.2   126  ILE126      0.2287
     71  O         57.7050 -126.1950   33.9050 O.2   126  ILE126     -0.2864
     72  CB        55.8730 -128.3160   33.4990 C.3   126  ILE126      0.0276
     73  CG1       56.6030 -129.0540   34.6260 C.3   126  ILE126      0.0022
     74  CG2       54.7590 -129.1390   32.8700 C.3   126  ILE126      0.0022
     75  CD1       57.2040 -130.3560   34.2300 C.3   126  ILE126      0.0001
     76  N         61.3730 -127.7220   34.1450 N.3   128  CYS128     -0.1235
     77  CA        62.4990 -128.1020   34.9600 C.3   128  CYS128      0.1677
     78  C         63.8010 -127.9400   34.1670 C.2   128  CYS128      0.2270
     79  O         63.9660 -128.4870   33.0660 O.2   128  CYS128     -0.2867
     80  CB        62.3610 -129.5310   35.4500 C.3   128  CYS128      0.0956
     81  SG        63.7300 -129.9450   36.5060 S.3   128  CYS128     -0.0801
     82  N         67.7200 -128.4340   33.3790 N.3   130  ASP130     -0.1239
     83  CA        68.8140 -129.3700   33.5390 C.3   130  ASP130      0.1674
     84  C         69.9770 -128.6810   32.8720 C.2   130  ASP130      0.2266
     85  O         70.0030 -128.5370   31.6540 O.2   130  ASP130     -0.2867
     86  CB        68.5540 -130.7010   32.8370 C.3   130  ASP130      0.1410
     87  CG        69.7910 -131.6130   32.8450 C.2   130  ASP130      0.3668
     88  OD1       69.7210 -132.7360   32.2950 O.co2 130  ASP130     -0.2456
     89  OD2       70.8430 -131.2050   33.3990 O.co2 130  ASP130     -0.2456
@<TRIPOS>BOND
     1    33    32    2
     2    32    31    1
     3    34    31    1
     4    34    35    1
     5    37    35   ar
     6    37    39   ar
     7    31    30    1
     8    35    36   ar
     9    39    40   ar
    10    36    38   ar
    11    40    38   ar
    12    26    25    2
    13    25    24    1
    14    50    48   ar
    15    50    51   ar
    16    48    46   ar
    17    64    61    1
    18    64    65    1
    19    66    65    1
    20    44    43    2
    21    24    23    1
    22    24    27    1
    23    51    49   ar
    24    41    42    1
    25    61    60    1
    26    61    62    1
    27    46    45    1
    28    46    47   ar
    29    23    29    1
    30    27    28    1
    31    45    42    1
    32    65    67    1
    33    63    62    2
    34    28    29    1
    35    60    54   am
    36    43    42    1
    37    43    52   am
    38    55    54    2
    39    62    68   am
    40    49    47   ar
    41    54    53    1
    42    53    52    1
    43    53    56    1
    44    68    69    1
    45    85    84    2
    46    56    57    1
    47    15    14    2
    48    88    87   ar
    49    69    70    1
    50    69    72    1
    51    14    13    1
    52    86    87    1
    53    86    83    1
    54    87    89   ar
    55    74    72    1
    56    84    83    1
    57    59    57   ar
    58    70    71    2
    59    79    78    2
    60    57    58   ar
    61     1     2    1
    62    82    83    1
    63    72    73    1
    64    13    12    1
    65    13    16    1
    66    12     3   am
    67     4     3    2
    68     3     2    1
    69     2     5    1
    70    76    77    1
    71    78    77    1
    72    75    73    1
    73    16    17    1
    74    77    80    1
    75    80    81    1
    76     5     6    1
    77    11     9    1
    78    17    19   ar
    79    17    18   ar
    80     7     6    1
    81     7     8    1
    82    19    21   ar
    83    18    20   ar
    84     9     8    2
    85     9    10    1
    86    21    22   ar
    87    20    22   ar
