@<TRIPOS>MOLECULE
tmp/3d29N00.pdb
 136 126 0 0 0
SMALL
GASTEIGER

@<TRIPOS>ATOM
      1  N         43.7580 -143.5730   63.0770 N.3     1  THR1       -0.1218
      2  CA        43.6500 -142.5670   64.1520 C.3     1  THR1        0.1862
      3  C         42.6500 -142.9570   65.2370 C.2     1  THR1        0.2287
      4  O         41.5790 -143.5020   64.9430 O.2     1  THR1       -0.2866
      5  CB        43.2070 -141.2030   63.6000 C.3     1  THR1        0.1770
      6  OG1       44.3260 -140.4930   63.0930 O.3     1  THR1       -0.2211
      7  CG2       42.6150 -140.3590   64.6770 C.3     1  THR1        0.0375
      8  N         49.7710 -141.4790   65.5280 N.3    19  ARG19      -0.1231
      9  CA        50.1630 -142.0560   64.2540 C.3    19  ARG19       0.1694
     10  C         49.5020 -141.4430   63.0230 C.2    19  ARG19       0.2593
     11  O         48.2980 -141.2080   63.0060 O.2    19  ARG19      -0.2718
     12  CB        49.8950 -143.5630   64.2770 C.3    19  ARG19       0.0321
     13  CG        50.1520 -144.2770   62.9690 C.3    19  ARG19       0.0489
     14  CD        50.0440 -145.7780   63.1620 C.3    19  ARG19       0.2205
     15  NE        51.1550 -146.2870   63.9570 N.pl3  19  ARG19      -0.0865
     16  CZ        51.3450 -147.5680   64.2520 C.cat  19  ARG19       0.5346
     17  NH1       50.4930 -148.4850   63.8130 N.pl3  19  ARG19       0.1354
     18  NH2       52.3820 -147.9310   64.9970 N.pl3  19  ARG19       0.1354
     19  N         50.3160 -141.1590   62.0160 N.am   20  THR20      -0.1939
     20  CA        49.8300 -140.6550   60.7490 C.3    20  THR20       0.2028
     21  C         50.4600 -141.5950   59.7270 C.2    20  THR20       0.2643
     22  O         51.6730 -141.8440   59.7360 O.2    20  THR20      -0.2714
     23  CB        50.2600 -139.2020   60.4370 C.3    20  THR20       0.1808
     24  OG1       51.6830 -139.1110   60.4600 O.3    20  THR20      -0.2208
     25  CG2       49.7050 -138.2590   61.4430 C.3    20  THR20       0.0379
     26  N         49.6210 -142.1240   58.8500 N.am   21  THR21      -0.1936
     27  CA        50.0750 -143.0620   57.8460 C.3    21  THR21       0.2028
     28  C         49.7750 -142.6300   56.4260 C.2    21  THR21       0.2643
     29  O         48.8980 -141.8030   56.1780 O.2    21  THR21      -0.2714
     30  CB        49.3880 -144.4070   58.0380 C.3    21  THR21       0.1808
     31  OG1       47.9730 -144.1930   58.0980 O.3    21  THR21      -0.2208
     32  CG2       49.8410 -145.0740   59.3150 C.3    21  THR21       0.0379
     33  N         50.5330 -143.2100   55.5060 N.am   22  THR22      -0.1936
     34  CA        50.3550 -143.0270   54.0730 C.3    22  THR22       0.2028
     35  C         50.4010 -144.4950   53.6760 C.2    22  THR22       0.2642
     36  O         51.4700 -145.0550   53.4290 O.2    22  THR22      -0.2714
     37  CB        51.5240 -142.2560   53.4110 C.3    22  THR22       0.1808
     38  OG1       52.7650 -142.8880   53.7390 O.3    22  THR22      -0.2208
     39  CG2       51.5680 -140.8300   53.8920 C.3    22  THR22       0.0379
     40  N         49.2340 -145.1290   53.6740 N.am   23  GLY23      -0.1954
     41  CA        49.1730 -146.5390   53.3600 C.3    23  GLY23       0.1869
     42  C         49.5240 -147.2900   54.6250 C.2    23  GLY23       0.2309
     43  O         48.9370 -147.0520   55.6840 O.2    23  GLY23      -0.2863
     44  N         54.1400 -142.2620   58.4110 N.3    27  ALA27      -0.1245
     45  CA        54.7750 -141.0230   57.9990 C.3    27  ALA27       0.1562
     46  C         55.2470 -140.2580   59.2210 C.2    27  ALA27       0.2260
     47  O         56.2460 -139.5480   59.1670 O.2    27  ALA27      -0.2867
     48  CB        53.7870 -140.1910   57.2100 C.3    27  ALA27       0.0290
     49  N         52.8530 -137.7560   66.0670 N.3    31  THR31      -0.1218
     50  CA        51.9500 -136.6800   65.6630 C.3    31  THR31       0.1862
     51  C         51.1570 -136.1310   66.8540 C.2    31  THR31       0.2287
     52  O         50.8100 -136.8820   67.7730 O.2    31  THR31      -0.2866
     53  CB        50.9280 -137.2010   64.6090 C.3    31  THR31       0.1770
     54  OG1       51.6290 -137.9070   63.5820 O.3    31  THR31      -0.2211
     55  CG2       50.1340 -136.0530   63.9860 C.3    31  THR31       0.0375
     56  N         47.7480 -134.7140   67.4800 N.3    33  LYS33      -0.1245
     57  CA        46.4110 -134.5550   66.9240 C.3    33  LYS33       0.1561
     58  C         45.5060 -133.6890   67.7790 C.2    33  LYS33       0.2260
     59  O         44.3360 -133.4770   67.4430 O.2    33  LYS33      -0.2867
     60  CB        45.7860 -135.9390   66.7130 C.3    33  LYS33       0.0271
     61  CG        46.6560 -136.8440   65.8630 C.3    33  LYS33       0.0035
     62  CD        46.0550 -138.2210   65.6660 C.3    33  LYS33       0.0206
     63  CE        47.0150 -139.1230   64.8840 C.3    33  LYS33       0.1093
     64  NZ        46.4730 -140.5020   64.6630 N.3    33  LYS33      -0.1314
     65  N         41.6850 -134.0830   65.9140 N.3    45  ARG45      -0.1231
     66  CA        41.5780 -134.2340   64.4720 C.3    45  ARG45       0.1694
     67  C         41.7190 -135.6730   64.0000 C.2    45  ARG45       0.2593
     68  O         42.5280 -136.4430   64.5270 O.2    45  ARG45      -0.2718
     69  CB        42.6440 -133.3800   63.7870 C.3    45  ARG45       0.0321
     70  CG        42.4950 -131.9050   64.0580 C.3    45  ARG45       0.0489
     71  CD        43.6150 -131.0920   63.4290 C.3    45  ARG45       0.2205
     72  NE        44.9230 -131.4240   63.9890 N.pl3  45  ARG45      -0.0865
     73  CZ        45.8760 -132.0910   63.3430 C.cat  45  ARG45       0.5346
     74  NH1       45.6900 -132.5090   62.0960 N.pl3  45  ARG45       0.1354
     75  NH2       47.0260 -132.3410   63.9510 N.pl3  45  ARG45       0.1354
     76  N         40.9090 -136.0340   63.0110 N.am   46  SER46      -0.1938
     77  CA        40.9770 -137.3660   62.3960 C.3    46  SER46       0.2055
     78  C         40.5940 -137.2040   60.9240 C.2    46  SER46       0.2644
     79  O         39.9250 -136.2320   60.5450 O.2    46  SER46      -0.2714
     80  CB        40.0430 -138.3730   63.0830 C.3    46  SER46       0.2130
     81  OG        38.6940 -138.1670   62.7320 O.3    46  SER46      -0.2179
     82  N         41.0320 -138.1500   60.1000 N.am   47  GLY47      -0.1939
     83  CA        40.7560 -138.0820   58.6770 C.3    47  GLY47       0.2014
     84  C         41.9860 -137.5760   57.9340 C.2    47  GLY47       0.2640
     85  O         43.1000 -138.0600   58.1450 O.2    47  GLY47      -0.2714
     86  N         41.7930 -136.5920   57.0650 N.am   48  SER48      -0.1935
     87  CA        42.8950 -136.0370   56.3070 C.3    48  SER48       0.2055
     88  C         43.6850 -135.0210   57.1340 C.2    48  SER48       0.2643
     89  O         43.1230 -134.0530   57.6650 O.2    48  SER48      -0.2714
     90  CB        42.3690 -135.3690   55.0430 C.3    48  SER48       0.2130
     91  OG        43.3530 -134.5130   54.4890 O.3    48  SER48      -0.2179
     92  N         44.9940 -135.2410   57.2360 N.am   49  ALA49      -0.1963
     93  CA        45.8480 -134.3430   57.9960 C.3    49  ALA49       0.1728
     94  C         45.7850 -132.9780   57.3470 C.2    49  ALA49       0.2616
     95  O         45.5910 -131.9690   58.0270 O.2    49  ALA49      -0.2715
     96  CB        47.2680 -134.8490   58.0030 C.3    49  ALA49       0.0334
     97  N         45.9380 -132.9480   56.0270 N.am   50  ALA50      -0.1977
     98  CA        45.8830 -131.6910   55.2890 C.3    50  ALA50       0.1597
     99  C         44.5310 -130.9970   55.4950 C.2    50  ALA50       0.2287
    100  O         44.4780 -129.7980   55.7720 O.2    50  ALA50      -0.2864
    101  CB        46.1200 -131.9410   53.8030 C.3    50  ALA50       0.0319
    102  N         42.1310 -131.4110   57.9750 N.3    52  THR52      -0.1203
    103  CA        41.8670 -130.9660   59.3450 C.3    52  THR52       0.1994
    104  C         42.7900 -129.8300   59.7770 C.2    52  THR52       0.2617
    105  O         42.3640 -128.9290   60.5070 O.2    52  THR52      -0.2717
    106  CB        41.9410 -132.1190   60.3680 C.3    52  THR52       0.1784
    107  OG1       43.2560 -132.6840   60.3730 O.3    52  THR52      -0.2211
    108  CG2       40.8990 -133.1930   60.0180 C.3    52  THR52       0.0376
    109  N         44.0370 -129.8540   59.3130 N.am   53  GLN53      -0.1979
    110  CA        44.9660 -128.7780   59.6320 C.3    53  GLN53       0.1601
    111  C         44.4240 -127.4680   59.0470 C.2    53  GLN53       0.2287
    112  O         44.3050 -126.4590   59.7490 O.2    53  GLN53      -0.2864
    113  CB        46.3620 -129.0770   59.0570 C.3    53  GLN53       0.0394
    114  CG        47.2770 -129.8860   59.9830 C.3    53  GLN53       0.0908
    115  CD        48.6270 -130.2330   59.3410 C.2    53  GLN53       0.2608
    116  OE1       49.2000 -129.4330   58.5940 O.2    53  GLN53      -0.2717
    117  NE2       49.1410 -131.4290   59.6420 N.am   53  GLN53      -0.0878
    118  N         37.5630 -134.4610   54.2170 N.3    94  THR94      -0.1218
    119  CA        37.5340 -135.7380   54.8950 C.3    94  THR94       0.1862
    120  C         38.0940 -135.3840   56.2620 C.2    94  THR94       0.2287
    121  O         39.2730 -135.6150   56.5450 O.2    94  THR94      -0.2866
    122  CB        38.4410 -136.7770   54.2330 C.3    94  THR94       0.1770
    123  OG1       38.1830 -136.8160   52.8270 O.3    94  THR94      -0.2211
    124  CG2       38.1750 -138.1520   54.8260 C.3    94  THR94       0.0375
    125  N         39.5900 -144.1460   62.8200 N.3   129  SER129     -0.1217
    126  CA        39.5440 -145.5370   62.4030 C.3   129  SER129      0.1889
    127  C         39.5920 -146.4930   63.6080 C.2   129  SER129      0.2288
    128  O         38.9970 -147.5800   63.5780 O.2   129  SER129     -0.2866
    129  CB        40.7150 -145.8240   61.4510 C.3   129  SER129      0.2089
    130  OG        41.9730 -145.5180   62.0520 O.3   129  SER129     -0.2183
    131  N         46.0740 -148.2940   62.0600 N.3   168  SER168     -0.1217
    132  CA        46.2350 -146.8850   61.7390 C.3   168  SER168      0.1889
    133  C         46.4290 -146.0480   62.9940 C.2   168  SER168      0.2288
    134  O         46.5660 -144.8320   62.9120 O.2   168  SER168     -0.2866
    135  CB        45.0190 -146.3700   60.9630 C.3   168  SER168      0.2089
    136  OG        44.7890 -147.1300   59.7910 O.3   168  SER168     -0.2183
@<TRIPOS>BOND
     1   123   122    1
     2    41    40    1
     3    41    42    1
     4    37    38    1
     5    37    39    1
     6    37    34    1
     7    36    35    2
     8    40    35   am
     9    35    34    1
    10   101    98    1
    11    34    33    1
    12   118   119    1
    13   122   124    1
    14   122   119    1
    15    91    90    1
    16    42    43    2
    17   119   120    1
    18    90    87    1
    19    98    99    1
    20    98    97    1
    21    99   100    2
    22    33    28   am
    23    97    94   am
    24    29    28    2
    25   120   121    2
    26    87    86    1
    27    87    88    1
    28    28    27    1
    29    86    84   am
    30    88    92   am
    31    88    89    2
    32    48    45    1
    33    92    93    1
    34    94    93    1
    35    94    95    2
    36    27    30    1
    37    27    26    1
    38    84    85    2
    39    84    83    1
    40   102   103    1
    41    93    96    1
    42    45    44    1
    43    45    46    1
    44    30    31    1
    45    30    32    1
    46   116   115    2
    47    83    82    1
    48    26    21   am
    49   111   110    1
    50   111   112    2
    51   113   110    1
    52   113   114    1
    53    47    46    2
    54   109   110    1
    55   109   104   am
    56   115   117   am
    57   115   114    1
    58   103   104    1
    59   103   106    1
    60    21    22    2
    61    21    20    1
    62   104   105    2
    63   136   135    1
    64   108   106    1
    65    82    78   am
    66   106   107    1
    67    23    24    1
    68    23    20    1
    69    23    25    1
    70    79    78    2
    71    20    19    1
    72    78    77    1
    73   135   132    1
    74   129   130    1
    75   129   126    1
    76   132   131    1
    77   132   133    1
    78    19    10   am
    79    74    73    1
    80    77    76    1
    81    77    80    1
    82   126   125    1
    83   126   127    1
    84    81    80    1
    85   134   133    2
    86    13    14    1
    87    13    12    1
    88    11    10    2
    89    76    67   am
    90    10     9    1
    91     1     2    1
    92     6     5    1
    93    14    15    1
    94    73    75    1
    95    73    72    2
    96    71    72    1
    97    71    70    1
    98   128   127    2
    99    54    53    1
   100     5     2    1
   101     5     7    1
   102    69    70    1
   103    69    66    1
   104    17    16    1
   105    15    16    2
   106    55    53    1
   107    67    66    1
   108    67    68    2
   109     2     3    1
   110    16    18    1
   111     9    12    1
   112     9     8    1
   113    66    65    1
   114    53    50    1
   115    64    63    1
   116    63    62    1
   117     4     3    2
   118    50    49    1
   119    50    51    1
   120    62    61    1
   121    61    60    1
   122    60    57    1
   123    51    52    2
   124    57    56    1
   125    57    58    1
   126    59    58    2
