@<TRIPOS>MOLECULE
tmp/3d2dA03.pdb
 189 180 0 0 0
SMALL
GASTEIGER

@<TRIPOS>ATOM
      1  N         24.8640   37.4920   11.0660 N.3    86  TYR86      -0.1241
      2  CA        24.7470   36.0490   11.2580 C.3    86  TYR86       0.1605
      3  C         24.4530   35.3390    9.9420 C.2    86  TYR86       0.2264
      4  O         24.6870   34.1390    9.8100 O.2    86  TYR86      -0.2867
      5  CB        23.6760   35.7040   12.2950 C.3    86  TYR86       0.0534
      6  CG        24.0400   36.0830   13.7140 C.ar   86  TYR86      -0.0201
      7  CD1       25.3670   36.1430   14.1190 C.ar   86  TYR86      -0.0009
      8  CD2       23.0550   36.3600   14.6550 C.ar   86  TYR86      -0.0009
      9  CE1       25.7030   36.4830   15.4140 C.ar   86  TYR86       0.0417
     10  CE2       23.3830   36.6990   15.9570 C.ar   86  TYR86       0.0417
     11  CZ        24.7080   36.7590   16.3290 C.ar   86  TYR86       0.1957
     12  OH        25.0380   37.0970   17.6210 O.3    86  TYR86      -0.2866
     13  N         28.7670   42.9170   23.5000 N.3   145  TRP145     -0.1227
     14  CA        30.0410   42.6210   24.1310 C.3   145  TRP145      0.1737
     15  C         31.1240   42.3520   23.0900 C.2   145  TRP145      0.2595
     16  O         32.3110   42.4100   23.4000 O.2   145  TRP145     -0.2718
     17  CB        29.9030   41.4350   25.0870 C.3   145  TRP145      0.0564
     18  CG        29.5090   40.1640   24.4100 C.ar  145  TRP145      0.0003
     19  CD1       28.2430   39.6780   24.2480 C.ar  145  TRP145      0.0946
     20  CD2       30.3880   39.2100   23.7980 C.ar  145  TRP145      0.0152
     21  NE1       28.2810   38.4780   23.5730 N.ar  145  TRP145     -0.2442
     22  CE2       29.5860   38.1690   23.2870 C.ar  145  TRP145      0.0810
     23  CE3       31.7770   39.1350   23.6330 C.ar  145  TRP145      0.0012
     24  CZ2       30.1280   37.0670   22.6210 C.ar  145  TRP145      0.0191
     25  CZ3       32.3120   38.0410   22.9720 C.ar  145  TRP145      0.0001
     26  CH2       31.4890   37.0230   22.4750 C.ar  145  TRP145      0.0015
     27  N         30.7100   42.0680   21.8570 N.am  146  CYS146     -0.1970
     28  CA        31.6470   41.7610   20.7760 C.3   146  CYS146      0.1712
     29  C         32.3450   43.0070   20.2390 C.2   146  CYS146      0.2296
     30  O         31.7390   43.8070   19.5290 O.2   146  CYS146     -0.2864
     31  CB        30.9320   41.0240   19.6400 C.3   146  CYS146      0.0983
     32  SG        30.2510   39.4230   20.1260 S.3   146  CYS146     -0.0798
     33  N         25.5740   44.1900   28.0230 N.3   162  MET162     -0.1245
     34  CA        25.5810   43.9410   29.4630 C.3   162  MET162      0.1570
     35  C         25.0510   45.1200   30.2700 C.2   162  MET162      0.2261
     36  O         24.8030   44.9960   31.4660 O.2   162  MET162     -0.2867
     37  CB        26.9930   43.5970   29.9410 C.3   162  MET162      0.0387
     38  CG        27.5040   42.2470   29.4690 C.3   162  MET162      0.0595
     39  SD        26.6620   40.8560   30.2570 S.3   162  MET162     -0.1393
     40  CE        27.2640   41.0020   31.9400 C.3   162  MET162      0.0692
     41  N         24.4560   37.1810   33.1460 N.3   260  SER260     -0.1202
     42  CA        24.2040   36.4260   31.9290 C.3   260  SER260      0.2020
     43  C         24.8500   35.0510   32.0200 C.2   260  SER260      0.2619
     44  O         25.7850   34.8510   32.7970 O.2   260  SER260     -0.2717
     45  CB        24.7220   37.1980   30.7170 C.3   260  SER260      0.2103
     46  OG        24.1410   38.4930   30.6680 O.3   260  SER260     -0.2182
     47  N         24.3450   34.1030   31.2360 N.am  261  VAL261     -0.1965
     48  CA        24.8330   32.7310   31.3100 C.3   261  VAL261      0.1727
     49  C         25.1870   32.1570   29.9440 C.2   261  VAL261      0.2616
     50  O         24.4860   32.3830   28.9580 O.2   261  VAL261     -0.2715
     51  CB        23.8170   31.7970   32.0040 C.3   261  VAL261      0.0290
     52  CG1       24.3670   30.3850   32.0850 C.3   261  VAL261      0.0023
     53  CG2       23.4860   32.3130   33.3920 C.3   261  VAL261      0.0023
     54  N         26.2960   31.4250   29.9010 N.am  262  LEU262     -0.1977
     55  CA        26.7120   30.7020   28.7110 C.3   262  LEU262      0.1596
     56  C         26.7390   29.2160   29.0350 C.2   262  LEU262      0.2287
     57  O         27.6300   28.7440   29.7370 O.2   262  LEU262     -0.2864
     58  CB        28.0970   31.1660   28.2600 C.3   262  LEU262      0.0297
     59  CG        28.1700   32.5360   27.5880 C.3   262  LEU262      0.0022
     60  CD1       29.5970   33.0590   27.5570 C.3   262  LEU262      0.0001
     61  CD2       27.5990   32.4530   26.1880 C.3   262  LEU262      0.0001
     62  N         28.4430   35.2400   33.6050 N.3   275  LEU275     -0.1245
     63  CA        28.9910   36.5480   33.2830 C.3   275  LEU275      0.1561
     64  C         28.2590   37.6020   34.0940 C.2   275  LEU275      0.2260
     65  O         27.0830   37.8760   33.8610 O.2   275  LEU275     -0.2867
     66  CB        28.8390   36.8430   31.7910 C.3   275  LEU275      0.0270
     67  CG        29.5190   35.8730   30.8290 C.3   275  LEU275      0.0019
     68  CD1       29.3200   36.3240   29.3870 C.3   275  LEU275      0.0001
     69  CD2       30.9940   35.7620   31.1560 C.3   275  LEU275      0.0001
     70  N         37.0840   36.4060   17.2830 N.3   331  PHE331     -0.1227
     71  CA        36.7900   35.9470   18.6360 C.3   331  PHE331      0.1736
     72  C         36.5230   34.4540   18.7400 C.2   331  PHE331      0.2595
     73  O         36.3070   33.9360   19.8360 O.2   331  PHE331     -0.2718
     74  CB        35.6370   36.7440   19.2380 C.3   331  PHE331      0.0547
     75  CG        36.0680   38.0430   19.8380 C.ar  331  PHE331     -0.0202
     76  CD1       36.3190   39.1420   19.0300 C.ar  331  PHE331     -0.0042
     77  CD2       36.2510   38.1600   21.2050 C.ar  331  PHE331     -0.0042
     78  CE1       36.7310   40.3400   19.5710 C.ar  331  PHE331     -0.0003
     79  CE2       36.6610   39.3520   21.7560 C.ar  331  PHE331     -0.0003
     80  CZ        36.9060   40.4470   20.9350 C.ar  331  PHE331     -0.0000
     81  N         36.5440   33.7670   17.6030 N.am  332  ASP332     -0.1974
     82  CA        36.4270   32.3110   17.5820 C.3   332  ASP332      0.1709
     83  C         37.1520   31.7000   16.3930 C.2   332  ASP332      0.2293
     84  O         37.8770   30.7140   16.5410 O.2   332  ASP332     -0.2864
     85  CB        34.9620   31.8680   17.5800 C.3   332  ASP332      0.1436
     86  CG        34.5740   31.1290   18.8490 C.2   332  ASP332      0.3671
     87  OD1       34.9640   31.5700   19.9510 O.co2 332  ASP332     -0.2456
     88  OD2       33.8780   30.1000   18.7450 O.co2 332  ASP332     -0.2456
     89  N         35.5670   30.2870   14.2250 N.3   334  ARG334     -0.1245
     90  CA        34.6920   29.1580   13.9050 C.3   334  ARG334      0.1563
     91  C         33.4110   29.5950   13.1980 C.2   334  ARG334      0.2260
     92  O         32.8000   30.5980   13.5630 O.2   334  ARG334     -0.2867
     93  CB        34.3200   28.3840   15.1710 C.3   334  ARG334      0.0307
     94  CG        35.4280   27.5190   15.7470 C.3   334  ARG334      0.0489
     95  CD        34.8920   26.6760   16.8940 C.3   334  ARG334      0.2205
     96  NE        34.1830   27.4930   17.8760 N.pl3 334  ARG334     -0.0865
     97  CZ        33.3530   27.0130   18.7980 C.cat 334  ARG334      0.5346
     98  NH1       33.1150   25.7090   18.8690 N.pl3 334  ARG334      0.1354
     99  NH2       32.7540   27.8380   19.6470 N.pl3 334  ARG334      0.1354
    100  N         29.4240   29.3150   12.3070 N.3   336  PHE336     -0.1241
    101  CA        28.3230   29.1470   13.2460 C.3   336  PHE336      0.1605
    102  C         26.9740   29.5550   12.6650 C.2   336  PHE336      0.2264
    103  O         26.8960   30.3230   11.7020 O.2   336  PHE336     -0.2867
    104  CB        28.5840   29.9560   14.5190 C.3   336  PHE336      0.0534
    105  CG        28.4650   31.4420   14.3250 C.ar  336  PHE336     -0.0203
    106  CD1       27.2550   32.0870   14.5240 C.ar  336  PHE336     -0.0042
    107  CD2       29.5650   32.1950   13.9410 C.ar  336  PHE336     -0.0042
    108  CE1       27.1430   33.4570   14.3430 C.ar  336  PHE336     -0.0003
    109  CE2       29.4610   33.5660   13.7610 C.ar  336  PHE336     -0.0003
    110  CZ        28.2480   34.1970   13.9610 C.ar  336  PHE336     -0.0000
    111  N         23.2150   30.7410   14.5200 N.3   338  THR338     -0.1218
    112  CA        22.5720   31.0190   15.7980 C.3   338  THR338      0.1862
    113  C         21.1060   31.4140   15.6470 C.2   338  THR338      0.2287
    114  O         20.7670   32.2920   14.8560 O.2   338  THR338     -0.2866
    115  CB        23.3320   32.1110   16.6060 C.3   338  THR338      0.1770
    116  OG1       22.4990   32.5980   17.6670 O.3   338  THR338     -0.2211
    117  CG2       23.7240   33.2750   15.7150 C.3   338  THR338      0.0375
    118  N         25.8770   25.4660   22.1880 N.3   366  PHE366     -0.1241
    119  CA        25.8350   26.1390   23.4760 C.3   366  PHE366      0.1605
    120  C         24.7690   27.2250   23.4800 C.2   366  PHE366      0.2264
    121  O         24.4480   27.7980   22.4440 O.2   366  PHE366     -0.2867
    122  CB        27.2150   26.6990   23.8600 C.3   366  PHE366      0.0534
    123  CG        27.7180   27.7860   22.9470 C.ar  366  PHE366     -0.0203
    124  CD1       27.4230   29.1160   23.2020 C.ar  366  PHE366     -0.0042
    125  CD2       28.5040   27.4790   21.8480 C.ar  366  PHE366     -0.0042
    126  CE1       27.8860   30.1200   22.3690 C.ar  366  PHE366     -0.0003
    127  CE2       28.9720   28.4810   21.0120 C.ar  366  PHE366     -0.0003
    128  CZ        28.6610   29.8030   21.2740 C.ar  366  PHE366     -0.0000
    129  N         23.0810   30.8740   25.1270 N.3   368  ALA368     -0.1231
    130  CA        23.3900   32.1360   25.7740 C.3   368  ALA368      0.1694
    131  C         22.1120   32.6810   26.3810 C.2   368  ALA368      0.2592
    132  O         21.1300   32.9070   25.6750 O.2   368  ALA368     -0.2718
    133  CB        23.9500   33.1120   24.7640 C.3   368  ALA368      0.0304
    134  N         22.1230   32.8790   27.6920 N.am  369  LEU369     -0.1966
    135  CA        20.9390   33.3480   28.3990 C.3   369  LEU369      0.1728
    136  C         21.1120   34.7780   28.8960 C.2   369  LEU369      0.2616
    137  O         22.0300   35.0730   29.6640 O.2   369  LEU369     -0.2715
    138  CB        20.6100   32.4160   29.5680 C.3   369  LEU369      0.0311
    139  CG        20.1300   31.0150   29.1850 C.3   369  LEU369      0.0022
    140  CD1       20.1690   30.0850   30.3860 C.3   369  LEU369      0.0001
    141  CD2       18.7320   31.0720   28.5870 C.3   369  LEU369      0.0001
    142  N         20.2250   35.6610   28.4500 N.am  370  ASN370     -0.1972
    143  CA        20.2520   37.0530   28.8790 C.3   370  ASN370      0.1688
    144  C         18.9310   37.4990   29.4860 C.2   370  ASN370      0.2292
    145  O         17.8590   37.1740   28.9760 O.2   370  ASN370     -0.2864
    146  CB        20.6340   37.9670   27.7160 C.3   370  ASN370      0.1181
    147  CG        22.1300   38.0890   27.5440 C.2   370  ASN370      0.2629
    148  OD1       22.8320   38.5590   28.4390 O.2   370  ASN370     -0.2716
    149  ND2       22.6290   37.6710   26.3900 N.am  370  ASN370     -0.0877
    150  N         16.2220   36.6570   26.9630 N.3   395  MET395     -0.1245
    151  CA        16.6440   36.3890   25.6040 C.3   395  MET395      0.1570
    152  C         17.4520   35.1030   25.5880 C.2   395  MET395      0.2261
    153  O         18.6110   35.0810   26.0020 O.2   395  MET395     -0.2867
    154  CB        17.4760   37.5330   25.0320 C.3   395  MET395      0.0387
    155  CG        17.8590   37.3050   23.5780 C.3   395  MET395      0.0595
    156  SD        18.4300   38.7970   22.7560 S.3   395  MET395     -0.1393
    157  CE        20.0090   39.0440   23.5690 C.3   395  MET395      0.0692
    158  N         19.3540   32.1940   23.5150 N.3   397  GLU397     -0.1245
    159  CA        20.0940   32.2040   22.2650 C.3   397  GLU397      0.1567
    160  C         20.7930   30.8620   22.0610 C.2   397  GLU397      0.2260
    161  O         21.6020   30.4400   22.8820 O.2   397  GLU397     -0.2867
    162  CB        21.1050   33.3550   22.2840 C.3   397  GLU397      0.0388
    163  CG        21.8310   33.6010   20.9710 C.3   397  GLU397      0.1160
    164  CD        22.7060   34.8470   21.0090 C.2   397  GLU397      0.3649
    165  OE1       22.5910   35.6390   21.9770 O.co2 397  GLU397     -0.2457
    166  OE2       23.5040   35.0350   20.0660 O.co2 397  GLU397     -0.2457
    167  N         23.2890   28.5430   19.8850 N.3   399  ILE399     -0.1245
    168  CA        24.3690   28.6450   18.9170 C.3   399  ILE399      0.1561
    169  C         24.9650   27.2770   18.6280 C.2   399  ILE399      0.2260
    170  O         24.8720   26.3600   19.4420 O.2   399  ILE399     -0.2867
    171  CB        25.4890   29.5840   19.4150 C.3   399  ILE399      0.0252
    172  CG1       24.9050   30.9140   19.8970 C.3   399  ILE399      0.0019
    173  CG2       26.5320   29.8040   18.3240 C.3   399  ILE399      0.0019
    174  CD1       24.4200   30.8900   21.3200 C.3   399  ILE399      0.0001
    175  N         28.7080   26.0440   16.6570 N.3   401  ALA401     -0.1245
    176  CA        29.8940   26.4730   15.9350 C.3   401  ALA401      0.1562
    177  C         30.8250   25.2910   15.7380 C.2   401  ALA401      0.2260
    178  O         30.9080   24.4090   16.5920 O.2   401  ALA401     -0.2867
    179  CB        30.5980   27.5820   16.6950 C.3   401  ALA401      0.0290
    180  N         19.9200   39.5290   15.2190 N.3   439  HIS439     -0.1241
    181  CA        20.0740   38.0830   15.1310 C.3   439  HIS439      0.1621
    182  C         19.2750   37.5620   13.9430 C.2   439  HIS439      0.2264
    183  O         18.6580   36.4970   14.0190 O.2   439  HIS439     -0.2867
    184  CB        19.5660   37.4060   16.4040 C.3   439  HIS439      0.0745
    185  CG        20.4490   37.6000   17.5950 C.ar  439  HIS439      0.0817
    186  ND1       20.8670   38.8430   18.0200 N.ar  439  HIS439     -0.2268
    187  CD2       20.9680   36.7080   18.4730 C.ar  439  HIS439      0.1154
    188  CE1       21.6160   38.7090   19.1000 C.ar  439  HIS439      0.1986
    189  NE2       21.6930   37.4230   19.3960 N.ar  439  HIS439     -0.2212
@<TRIPOS>BOND
     1     4     3    2
     2     3     2    1
     3     1     2    1
     4     2     5    1
     5   103   102    2
     6     5     6    1
     7   100   101    1
     8   102   101    1
     9    91    92    2
    10    91    90    1
    11   101   104    1
    12     6     7   ar
    13     6     8   ar
    14   109   107   ar
    15   109   110   ar
    16    90    89    1
    17    90    93    1
    18   107   105   ar
    19   182   183    2
    20   182   181    1
    21   110   108   ar
    22     7     9   ar
    23   105   104    1
    24   105   106   ar
    25   108   106   ar
    26   111   112    1
    27     8    10   ar
    28   114   113    2
    29   181   180    1
    30   181   184    1
    31    93    94    1
    32     9    11   ar
    33   113   112    1
    34   117   115    1
    35   177   176    1
    36   177   178    2
    37    94    95    1
    38   112   115    1
    39   176   175    1
    40   176   179    1
    41    10    11   ar
    42    11    12    1
    43    83    84    2
    44    83    82    1
    45   184   185    1
    46   115   116    1
    47    95    96    1
    48    70    71    1
    49    85    82    1
    50    85    86    1
    51    82    81    1
    52   185   186   ar
    53   185   187   ar
    54    81    72   am
    55    96    97    2
    56   186   188   ar
    57   173   171    1
    58   187   189   ar
    59   169   168    1
    60   169   170    2
    61    71    72    1
    62    71    74    1
    63    72    73    2
    64    88    86   ar
    65    97    98    1
    66    97    99    1
    67    86    87   ar
    68   168   171    1
    69   168   167    1
    70    76    78   ar
    71    76    75   ar
    72   188   189   ar
    73    74    75    1
    74   171   172    1
    75    30    29    2
    76    78    80   ar
    77    31    32    1
    78    31    28    1
    79    75    77   ar
    80   172   174    1
    81   166   164   ar
    82    29    28    1
    83    28    27    1
    84    80    79   ar
    85   163   164    1
    86   163   162    1
    87   164   165   ar
    88   127   128   ar
    89   127   125   ar
    90    77    79   ar
    91   128   126   ar
    92   125   123   ar
    93    27    15   am
    94   160   159    1
    95   160   161    2
    96   118   119    1
    97   159   162    1
    98   159   158    1
    99   126   124   ar
   100   121   120    2
   101    26    24   ar
   102    26    25   ar
   103    24    22   ar
   104   156   157    1
   105   156   155    1
   106   123   124   ar
   107   123   122    1
   108    25    23   ar
   109    15    16    2
   110    15    14    1
   111    22    21   ar
   112    22    20   ar
   113   119   120    1
   114   119   122    1
   115    13    14    1
   116    21    19   ar
   117   155   154    1
   118    23    20   ar
   119    20    18   ar
   120    14    17    1
   121    19    18   ar
   122    18    17    1
   123   133   130    1
   124   154   151    1
   125   129   130    1
   126   152   151    1
   127   152   153    2
   128   151   150    1
   129   132   131    2
   130   130   131    1
   131    61    59    1
   132   131   134   am
   133   149   147   am
   134   147   146    1
   135   147   148    2
   136    60    59    1
   137    59    58    1
   138   134   135    1
   139   146   143    1
   140    33    34    1
   141    58    55    1
   142   135   136    1
   143   135   138    1
   144   142   143    1
   145   142   136   am
   146   141   139    1
   147    55    56    1
   148    55    54    1
   149   143   144    1
   150   136   137    2
   151    50    49    2
   152   145   144    2
   153    56    57    2
   154   139   138    1
   155   139   140    1
   156    68    67    1
   157    34    37    1
   158    34    35    1
   159    38    37    1
   160    38    39    1
   161    54    49   am
   162    49    48    1
   163    39    40    1
   164    35    36    2
   165    46    45    1
   166    45    42    1
   167    67    69    1
   168    67    66    1
   169    47    48    1
   170    47    43   am
   171    48    51    1
   172    66    63    1
   173    42    43    1
   174    42    41    1
   175    51    52    1
   176    51    53    1
   177    43    44    2
   178    63    62    1
   179    63    64    1
   180    65    64    2
