@<TRIPOS>MOLECULE
tmp/3d2dA00.pdb
 94 91 0 0 0
SMALL
GASTEIGER

@<TRIPOS>ATOM
      1  N         39.2380   56.8030   -4.1890 N.3    17  ARG17      -0.1231
      2  CA        40.3670   56.0810   -4.7640 C.3    17  ARG17       0.1694
      3  C         40.5930   54.6890   -4.1780 C.2    17  ARG17       0.2592
      4  O         41.3200   53.8770   -4.7540 O.2    17  ARG17      -0.2718
      5  CB        41.6440   56.9180   -4.6480 C.3    17  ARG17       0.0321
      6  CG        41.6570   58.1450   -5.5440 C.3    17  ARG17       0.0489
      7  CD        42.8650   59.0260   -5.2640 C.3    17  ARG17       0.2205
      8  NE        42.8080   59.6250   -3.9310 N.pl3  17  ARG17      -0.0865
      9  CZ        42.3320   60.8420   -3.6760 C.cat  17  ARG17       0.5346
     10  NH1       41.8680   61.6000   -4.6640 N.pl3  17  ARG17       0.1354
     11  NH2       42.3230   61.3040   -2.4310 N.pl3  17  ARG17       0.1354
     12  N         39.9740   54.4080   -3.0380 N.am   18  ASN18      -0.1960
     13  CA        40.1920   53.1240   -2.3790 C.3    18  ASN18       0.1819
     14  C         39.1220   52.0930   -2.7200 C.2    18  ASN18       0.2621
     15  O         38.0450   52.0690   -2.1260 O.2    18  ASN18      -0.2715
     16  CB        40.3130   53.2930   -0.8680 C.3    18  ASN18       0.1195
     17  CG        41.0050   52.1200   -0.2140 C.2    18  ASN18       0.2630
     18  OD1       40.9710   51.0040   -0.7300 O.2    18  ASN18      -0.2716
     19  ND2       41.6440   52.3660    0.9250 N.am   18  ASN18      -0.0877
     20  N         39.4370   51.2380   -3.6850 N.am   19  HIS19      -0.1973
     21  CA        38.5030   50.2270   -4.1440 C.3    19  HIS19       0.1656
     22  C         39.2160   49.2100   -5.0150 C.2    19  HIS19       0.2291
     23  O         40.1070   49.5530   -5.7880 O.2    19  HIS19      -0.2864
     24  CB        37.3770   50.8730   -4.9420 C.3    19  HIS19       0.0771
     25  CG        37.8390   51.5420   -6.1980 C.ar   19  HIS19       0.0820
     26  ND1       38.0690   52.8980   -6.2760 N.ar   19  HIS19      -0.2267
     27  CD2       38.1210   51.0400   -7.4230 C.ar   19  HIS19       0.1154
     28  CE1       38.4690   53.2050   -7.4980 C.ar   19  HIS19       0.1986
     29  NE2       38.5090   52.0950   -8.2140 N.ar   19  HIS19      -0.2212
     30  N         41.3210   39.5370   -0.1810 N.3    32  ARG32      -0.1231
     31  CA        41.8100   39.7540    1.1730 C.3    32  ARG32       0.1694
     32  C         40.8850   40.6810    1.9520 C.2    32  ARG32       0.2592
     33  O         40.5330   40.3990    3.0970 O.2    32  ARG32      -0.2718
     34  CB        43.2310   40.3150    1.1580 C.3    32  ARG32       0.0321
     35  CG        43.7700   40.6380    2.5430 C.3    32  ARG32       0.0489
     36  CD        45.2130   41.0990    2.4880 C.3    32  ARG32       0.2205
     37  NE        45.3940   42.1930    1.5400 N.pl3  32  ARG32      -0.0865
     38  CZ        45.2370   43.4780    1.8420 C.cat  32  ARG32       0.5346
     39  NH1       44.8940   43.8360    3.0740 N.pl3  32  ARG32       0.1354
     40  NH2       45.4230   44.4070    0.9120 N.pl3  32  ARG32       0.1354
     41  N         40.4970   41.7880    1.3270 N.am   33  PHE33      -0.1976
     42  CA        39.5840   42.7400    1.9510 C.3    33  PHE33       0.1639
     43  C         38.1910   42.1380    2.1070 C.2    33  PHE33       0.2290
     44  O         37.4460   42.4900    3.0210 O.2    33  PHE33      -0.2864
     45  CB        39.5120   44.0350    1.1380 C.3    33  PHE33       0.0560
     46  CG        40.7280   44.9070    1.2800 C.ar   33  PHE33      -0.0200
     47  CD1       40.9840   45.5730    2.4660 C.ar   33  PHE33      -0.0042
     48  CD2       41.6110   45.0680    0.2250 C.ar   33  PHE33      -0.0042
     49  CE1       42.1030   46.3780    2.5990 C.ar   33  PHE33      -0.0003
     50  CE2       42.7320   45.8750    0.3530 C.ar   33  PHE33      -0.0003
     51  CZ        42.9780   46.5270    1.5400 C.ar   33  PHE33      -0.0000
     52  N         38.2910   39.7460    4.9300 N.3    36  LEU36      -0.1245
     53  CA        38.8260   40.4790    6.0650 C.3    36  LEU36       0.1561
     54  C         37.7530   40.6970    7.1340 C.2    36  LEU36       0.2260
     55  O         38.0490   40.7210    8.3270 O.2    36  LEU36      -0.2867
     56  CB        39.4030   41.8160    5.5940 C.3    36  LEU36       0.0270
     57  CG        40.4090   42.4990    6.5160 C.3    36  LEU36       0.0019
     58  CD1       41.2940   41.4710    7.2050 C.3    36  LEU36       0.0001
     59  CD2       41.2400   43.4950    5.7310 C.3    36  LEU36       0.0001
     60  N         36.1360   51.2010   -0.4280 N.3    56  LEU56      -0.1245
     61  CA        36.3670   51.6160    0.9500 C.3    56  LEU56       0.1561
     62  C         36.4440   53.1330    1.0590 C.2    56  LEU56       0.2260
     63  O         37.5370   53.7010    1.1210 O.2    56  LEU56      -0.2867
     64  CB        37.6590   51.0020    1.4910 C.3    56  LEU56       0.0270
     65  CG        37.6890   49.5040    1.8030 C.3    56  LEU56       0.0019
     66  CD1       37.5250   48.6770    0.5390 C.3    56  LEU56       0.0001
     67  CD2       38.9850   49.1420    2.5100 C.3    56  LEU56       0.0001
     68  N         35.1470   50.2640    6.7060 N.3   103  MET103     -0.1230
     69  CA        36.1930   50.1620    7.7200 C.3   103  MET103      0.1702
     70  C         37.0640   51.4170    7.8270 C.2   103  MET103      0.2592
     71  O         37.6070   51.7120    8.8940 O.2   103  MET103     -0.2718
     72  CB        37.0620   48.9320    7.4730 C.3   103  MET103      0.0401
     73  CG        37.6620   48.8730    6.0910 C.3   103  MET103      0.0596
     74  SD        38.7760   47.4720    5.9550 S.3   103  MET103     -0.1393
     75  CE        39.9170   47.8690    7.2790 C.3   103  MET103      0.0692
     76  N         37.2000   52.1500    6.7270 N.am  104  ASN104     -0.1974
     77  CA        37.9730   53.3870    6.7360 C.3   104  ASN104      0.1688
     78  C         37.2300   54.5090    7.4440 C.2   104  ASN104      0.2292
     79  O         37.8090   55.5470    7.7740 O.2   104  ASN104     -0.2864
     80  CB        38.3370   53.8130    5.3160 C.3   104  ASN104      0.1181
     81  CG        39.5130   53.0420    4.7640 C.2   104  ASN104      0.2629
     82  OD1       40.1420   52.2560    5.4760 O.2   104  ASN104     -0.2716
     83  ND2       39.8220   53.2630    3.4890 N.am  104  ASN104     -0.0877
     84  N         40.4160   43.4910   14.0890 N.3   328  PHE328     -0.1241
     85  CA        40.6470   42.2800   13.3120 C.3   328  PHE328      0.1605
     86  C         40.9960   41.0730   14.1640 C.2   328  PHE328      0.2264
     87  O         41.5690   40.1030   13.6710 O.2   328  PHE328     -0.2867
     88  CB        41.7230   42.5190   12.2570 C.3   328  PHE328      0.0534
     89  CG        41.3310   43.5270   11.2250 C.ar  328  PHE328     -0.0203
     90  CD1       40.2770   43.2720   10.3640 C.ar  328  PHE328     -0.0042
     91  CD2       42.0040   44.7310   11.1240 C.ar  328  PHE328     -0.0042
     92  CE1       39.9030   44.1970    9.4170 C.ar  328  PHE328     -0.0003
     93  CE2       41.6400   45.6590   10.1800 C.ar  328  PHE328     -0.0003
     94  CZ        40.5850   45.3920    9.3200 C.ar  328  PHE328     -0.0000
@<TRIPOS>BOND
     1    29    28   ar
     2    29    27   ar
     3    28    26   ar
     4    27    25   ar
     5    26    25   ar
     6    25    24    1
     7    23    22    2
     8     6     7    1
     9     6     5    1
    10     7     8    1
    11    22    21    1
    12    24    21    1
    13     2     5    1
    14     2     1    1
    15     2     3    1
    16     4     3    2
    17    10     9    1
    18     3    12   am
    19    21    20    1
    20     8     9    2
    21    20    14   am
    22     9    11    1
    23    12    13    1
    24    14    13    1
    25    14    15    2
    26    13    16    1
    27    16    17    1
    28    18    17    2
    29    60    61    1
    30    17    19   am
    31    30    31    1
    32    48    50   ar
    33    48    46   ar
    34    50    51   ar
    35    66    65    1
    36    40    38    1
    37    61    62    1
    38    61    64    1
    39    62    63    2
    40    45    46    1
    41    45    42    1
    42    34    31    1
    43    34    35    1
    44    31    32    1
    45    46    47   ar
    46    41    42    1
    47    41    32   am
    48    64    65    1
    49    37    38    2
    50    37    36    1
    51    51    49   ar
    52    65    67    1
    53    38    39    1
    54    42    43    1
    55    32    33    2
    56    43    44    2
    57    47    49   ar
    58    36    35    1
    59    83    81   am
    60    81    80    1
    61    81    82    2
    62    52    53    1
    63    80    77    1
    64    56    53    1
    65    56    57    1
    66    59    57    1
    67    74    73    1
    68    74    75    1
    69    53    54    1
    70    73    72    1
    71    57    58    1
    72    68    69    1
    73    76    77    1
    74    76    70   am
    75    77    78    1
    76    54    55    2
    77    78    79    2
    78    72    69    1
    79    69    70    1
    80    70    71    2
    81    94    92   ar
    82    94    93   ar
    83    92    90   ar
    84    93    91   ar
    85    90    89   ar
    86    91    89   ar
    87    89    88    1
    88    88    85    1
    89    85    84    1
    90    85    86    1
    91    87    86    2
