@<TRIPOS>MOLECULE
tmp/3d2fC00.pdb
 174 161 0 0 0
SMALL
GASTEIGER

@<TRIPOS>ATOM
      1  N         78.9080  145.6230  121.6840 N.3     7  ASP7       -0.1239
      2  CA        78.6450  144.2780  121.1900 C.3     7  ASP7        0.1674
      3  C         77.1650  143.9750  121.4620 C.2     7  ASP7        0.2266
      4  O         76.7920  143.6280  122.5780 O.2     7  ASP7       -0.2867
      5  CB        79.5680  143.2350  121.8500 C.3     7  ASP7        0.1410
      6  CG        79.2470  141.7950  121.4150 C.2     7  ASP7        0.3668
      7  OD1       78.4880  141.5980  120.4400 O.co2   7  ASP7       -0.2456
      8  OD2       79.7510  140.8510  122.0580 O.co2   7  ASP7       -0.2456
      9  N         74.7130  141.5660  121.3300 N.3     9  GLY9       -0.1210
     10  CA        74.5090  140.1350  121.2070 C.3     9  GLY9        0.1956
     11  C         73.0390  139.7500  121.3040 C.2     9  GLY9        0.2612
     12  O         72.2230  140.4820  121.8860 O.2     9  GLY9       -0.2717
     13  N         72.6970  138.5950  120.7340 N.am   10  ASN10      -0.1960
     14  CA        71.3200  138.1090  120.8030 C.3    10  ASN10       0.1819
     15  C         70.8700  137.7540  122.2200 C.2    10  ASN10       0.2621
     16  O         69.6970  137.9660  122.5860 O.2    10  ASN10      -0.2715
     17  CB        71.0900  136.9340  119.8600 C.3    10  ASN10       0.1195
     18  CG        69.6420  136.6810  119.6340 C.2    10  ASN10       0.2630
     19  OD1       69.1130  135.6170  120.0030 O.2    10  ASN10      -0.2716
     20  ND2       68.9620  137.6640  119.0630 N.am   10  ASN10      -0.0877
     21  N         71.8050  137.2150  122.9980 N.am   11  ASN11      -0.1958
     22  CA        71.5880  136.9160  124.3930 C.3    11  ASN11       0.1819
     23  C         72.0860  138.0400  125.3200 C.2    11  ASN11       0.2621
     24  O         71.3620  138.4690  126.2230 O.2    11  ASN11      -0.2715
     25  CB        72.2770  135.5860  124.7350 C.3    11  ASN11       0.1195
     26  CG        72.2380  135.2740  126.2010 C.2    11  ASN11       0.2630
     27  OD1       73.1770  135.5690  126.9230 O.2    11  ASN11      -0.2716
     28  ND2       71.1380  134.7020  126.6560 N.am   11  ASN11      -0.0877
     29  N         73.3160  138.5250  125.1280 N.am   12  ASN12      -0.1972
     30  CA        73.7910  139.5990  125.9920 C.3    12  ASN12       0.1688
     31  C         74.6770  140.5980  125.2730 C.2    12  ASN12       0.2292
     32  O         75.3100  140.2810  124.2420 O.2    12  ASN12      -0.2864
     33  CB        74.5200  139.0320  127.2010 C.3    12  ASN12       0.1181
     34  CG        75.7010  138.1660  126.8000 C.2    12  ASN12       0.2629
     35  OD1       75.5620  136.9530  126.6160 O.2    12  ASN12      -0.2716
     36  ND2       76.8530  138.7960  126.5930 N.am   12  ASN12      -0.0877
     37  N         68.1240  141.5120  117.6040 N.3    68  LYS68      -0.1245
     38  CA        68.9350  141.6680  116.3980 C.3    68  LYS68       0.1561
     39  C         68.4580  140.7370  115.2550 C.2    68  LYS68       0.2260
     40  O         68.8250  140.9190  114.0820 O.2    68  LYS68      -0.2867
     41  CB        70.4010  141.4150  116.7430 C.3    68  LYS68       0.0271
     42  CG        70.7160  139.9450  116.9170 C.3    68  LYS68       0.0035
     43  CD        72.0360  139.7200  117.6080 C.3    68  LYS68       0.0206
     44  CE        73.2340  140.0240  116.7290 C.3    68  LYS68       0.1093
     45  NZ        74.4770  139.7610  117.5000 N.3    68  LYS68      -0.1314
     46  N         81.1850  141.9580  113.4660 N.3   173  ASP173     -0.1239
     47  CA        81.5910  141.6860  114.8510 C.3   173  ASP173      0.1674
     48  C         82.9600  141.0320  114.9730 C.2   173  ASP173      0.2266
     49  O         83.7950  141.4680  115.7670 O.2   173  ASP173     -0.2867
     50  CB        80.5080  140.9410  115.6740 C.3   173  ASP173      0.1410
     51  CG        79.9990  139.6460  115.0190 C.2   173  ASP173      0.3668
     52  OD1       80.5440  139.1970  113.9820 O.co2 173  ASP173     -0.2456
     53  OD2       79.0130  139.0630  115.5640 O.co2 173  ASP173     -0.2456
     54  N         83.6550  132.4080  115.9850 N.3   202  ASP202     -0.1239
     55  CA        82.7390  132.9660  116.9820 C.3   202  ASP202      0.1674
     56  C         81.4110  132.2080  116.9300 C.2   202  ASP202      0.2266
     57  O         80.7360  132.2140  115.9050 O.2   202  ASP202     -0.2867
     58  CB        82.5530  134.4650  116.6960 C.3   202  ASP202      0.1410
     59  CG        81.5690  135.1620  117.6440 C.2   202  ASP202      0.3668
     60  OD1       81.2600  134.6870  118.7610 O.co2 202  ASP202     -0.2456
     61  OD2       81.1040  136.2440  117.2460 O.co2 202  ASP202     -0.2456
     62  N         77.9700  132.1800  119.1790 N.3   204  GLY204     -0.1210
     63  CA        77.2560  132.7630  120.2890 C.3   204  GLY204      0.1956
     64  C         75.9160  132.1020  120.5250 C.2   204  GLY204      0.2612
     65  O         75.7450  130.8960  120.3490 O.2   204  GLY204     -0.2717
     66  N         74.9580  132.9170  120.9240 N.am  205  HIS205     -0.1961
     67  CA        73.6420  132.4500  121.2720 C.3   205  HIS205      0.1787
     68  C         72.8810  132.0390  120.0210 C.2   205  HIS205      0.2621
     69  O         71.9750  131.2200  120.0940 O.2   205  HIS205     -0.2715
     70  CB        72.8990  133.5800  121.9870 C.3   205  HIS205      0.0785
     71  CG        71.5230  133.2170  122.4520 C.ar  205  HIS205      0.0821
     72  ND1       70.3830  133.7020  121.8480 N.ar  205  HIS205     -0.2267
     73  CD2       71.1050  132.4310  123.4720 C.ar  205  HIS205      0.1154
     74  CE1       69.3180  133.2320  122.4780 C.ar  205  HIS205      0.1986
     75  NE2       69.7310  132.4560  123.4640 N.ar  205  HIS205     -0.2212
     76  N         73.2300  132.6270  118.8780 N.am  206  SER206     -0.1936
     77  CA        72.4410  132.4110  117.6780 C.3   206  SER206      0.2055
     78  C         73.2280  132.1340  116.3830 C.2   206  SER206      0.2643
     79  O         72.7070  131.4510  115.4970 O.2   206  SER206     -0.2714
     80  CB        71.4140  133.5450  117.4900 C.3   206  SER206      0.2130
     81  OG        71.9880  134.7520  117.0330 O.3   206  SER206     -0.2179
     82  N         74.4490  132.6700  116.2750 N.am  207  SER207     -0.1949
     83  CA        75.2390  132.6190  115.0290 C.3   207  SER207      0.1924
     84  C         76.5810  131.9310  115.1910 C.2   207  SER207      0.2314
     85  O         77.1620  131.9110  116.2770 O.2   207  SER207     -0.2863
     86  CB        75.5210  134.0270  114.4880 C.3   207  SER207      0.2116
     87  OG        74.3590  134.6680  114.0130 O.3   207  SER207     -0.2180
     88  N         74.0230  128.6100  120.7290 N.3   233  GLY233     -0.1225
     89  CA        73.5980  128.0040  122.0080 C.3   233  GLY233      0.1811
     90  C         72.0940  127.8440  122.1970 C.2   233  GLY233      0.2280
     91  O         71.6460  126.9290  122.8810 O.2   233  GLY233     -0.2866
     92  N         69.7540  124.7290  123.7010 N.3   237  ASP237     -0.1239
     93  CA        68.7590  124.8500  124.7740 C.3   237  ASP237      0.1674
     94  C         67.4090  124.2850  124.3410 C.2   237  ASP237      0.2266
     95  O         66.7380  123.6150  125.1040 O.2   237  ASP237     -0.2867
     96  CB        68.5500  126.3160  125.1470 C.3   237  ASP237      0.1410
     97  CG        69.7930  126.9800  125.6930 C.2   237  ASP237      0.3668
     98  OD1       70.7620  126.2800  126.0140 O.co2 237  ASP237     -0.2456
     99  OD2       69.7880  128.2310  125.8160 O.co2 237  ASP237     -0.2456
    100  N         69.3550  125.7040  129.7290 N.3   271  GLU271     -0.1245
    101  CA        70.5950  126.4340  129.4500 C.3   271  GLU271      0.1567
    102  C         71.6930  126.1400  130.4710 C.2   271  GLU271      0.2260
    103  O         72.8640  126.0270  130.1210 O.2   271  GLU271     -0.2867
    104  CB        70.3310  127.9280  129.4270 C.3   271  GLU271      0.0388
    105  CG        71.3750  128.6770  128.6910 C.3   271  GLU271      0.1160
    106  CD        71.9940  129.7560  129.5190 C.2   271  GLU271      0.3649
    107  OE1       72.4320  129.4420  130.6490 O.co2 271  GLU271     -0.2457
    108  OE2       72.0800  130.9040  129.0370 O.co2 271  GLU271     -0.2457
    109  N         72.8770  122.5920  129.9320 N.3   274  LYS274     -0.1231
    110  CA        73.7980  122.6810  128.7960 C.3   274  LYS274      0.1693
    111  C         75.2170  123.0980  129.2150 C.2   274  LYS274      0.2591
    112  O         76.2020  122.3980  128.8920 O.2   274  LYS274     -0.2718
    113  CB        73.2020  123.6030  127.7240 C.3   274  LYS274      0.0285
    114  CG        74.0880  123.8960  126.5250 C.3   274  LYS274      0.0035
    115  CD        74.3910  125.3800  126.4830 C.3   274  LYS274      0.0206
    116  CE        73.3610  126.1230  125.7040 C.3   274  LYS274      0.1093
    117  NZ        73.3980  127.5790  125.9020 N.3   274  LYS274     -0.1314
    118  N         75.3080  124.2020  129.9600 N.am  275  LYS275     -0.1980
    119  CA        76.5730  124.6930  130.5230 C.3   275  LYS275      0.1596
    120  C         77.3270  123.6730  131.3790 C.2   275  LYS275      0.2287
    121  O         78.5450  123.5240  131.2160 O.2   275  LYS275     -0.2864
    122  CB        76.3410  125.9740  131.3330 C.3   275  LYS275      0.0298
    123  CG        76.3360  127.2820  130.5100 C.3   275  LYS275      0.0038
    124  CD        75.5840  128.3620  131.2790 C.3   275  LYS275      0.0206
    125  CE        76.3120  129.6870  131.2680 C.3   275  LYS275      0.1093
    126  NZ        75.3880  130.8300  131.5810 N.3   275  LYS275     -0.1314
    127  N         79.3560  121.0930  129.4180 N.3   278  SER278     -0.1217
    128  CA        80.6170  121.5510  128.8510 C.3   278  SER278      0.1889
    129  C         81.7630  121.2140  129.8000 C.2   278  SER278      0.2288
    130  O         82.9130  121.0900  129.3800 O.2   278  SER278     -0.2866
    131  CB        80.5820  123.0610  128.5770 C.3   278  SER278      0.2089
    132  OG        79.7350  123.3660  127.4790 O.3   278  SER278     -0.2183
    133  N         83.1260  133.7690  121.7210 N.3   341  GLY341     -0.1210
    134  CA        81.7110  133.4130  121.8140 C.3   341  GLY341      0.1956
    135  C         81.5120  132.3060  122.8310 C.2   341  GLY341      0.2612
    136  O         82.3480  131.4010  122.9400 O.2   341  GLY341     -0.2717
    137  N         80.4080  132.3660  123.5740 N.am  342  GLY342     -0.1942
    138  CA        80.1480  131.4200  124.6570 C.3   342  GLY342      0.2014
    139  C         79.8500  129.9930  124.2060 C.2   342  GLY342      0.2639
    140  O         80.0740  129.0420  124.9570 O.2   342  GLY342     -0.2714
    141  N         79.3270  129.8230  122.9940 N.am  343  THR343     -0.1950
    142  CA        79.0240  128.4720  122.5070 C.3   343  THR343      0.1897
    143  C         80.2770  127.6710  122.0530 C.2   343  THR343      0.2313
    144  O         80.2260  126.4470  121.9350 O.2   343  THR343     -0.2863
    145  CB        77.8450  128.4900  121.4850 C.3   343  THR343      0.1794
    146  OG1       76.7120  129.1020  122.1120 O.3   343  THR343     -0.2208
    147  CG2       77.4470  127.0790  121.0150 C.3   343  THR343      0.0378
    148  N         82.6030  127.0070  123.9630 N.3   345  ARG345     -0.1231
    149  CA        83.0150  126.2890  125.1640 C.3   345  ARG345      0.1694
    150  C         82.4920  124.8500  125.1650 C.2   345  ARG345      0.2591
    151  O         82.8840  124.0400  126.0120 O.2   345  ARG345     -0.2718
    152  CB        82.5630  127.0380  126.4240 C.3   345  ARG345      0.0321
    153  CG        83.2150  128.4100  126.5760 C.3   345  ARG345      0.0489
    154  CD        82.4730  129.2910  127.5570 C.3   345  ARG345      0.2205
    155  NE        83.0990  130.6110  127.6610 N.pl3 345  ARG345     -0.0865
    156  CZ        82.4460  131.7410  127.9270 C.cat 345  ARG345      0.5346
    157  NH1       81.1320  131.7450  128.1360 N.pl3 345  ARG345      0.1354
    158  NH2       83.1140  132.8750  127.9860 N.pl3 345  ARG345      0.1354
    159  N         81.5980  124.5440  124.2160 N.am  346  ILE346     -0.1980
    160  CA        81.1030  123.1790  124.0120 C.3   346  ILE346      0.1595
    161  C         82.2010  122.2820  123.4120 C.2   346  ILE346      0.2287
    162  O         82.6860  122.5580  122.3000 O.2   346  ILE346     -0.2864
    163  CB        79.8230  123.1560  123.1310 C.3   346  ILE346      0.0276
    164  CG1       78.7470  124.0770  123.7290 C.3   346  ILE346      0.0022
    165  CG2       79.3280  121.7040  122.9270 C.3   346  ILE346      0.0022
    166  CD1       77.3680  123.9410  123.1260 C.3   346  ILE346      0.0001
    167  N         84.6050  137.0110  125.8330 N.3   368  ASP368     -0.1239
    168  CA        83.4020  137.8050  126.0450 C.3   368  ASP368      0.1674
    169  C         83.5640  139.2700  125.6190 C.2   368  ASP368      0.2266
    170  O         82.5990  139.9070  125.1790 O.2   368  ASP368     -0.2867
    171  CB        83.0250  137.7820  127.5250 C.3   368  ASP368      0.1410
    172  CG        82.3520  136.4720  127.9610 C.2   368  ASP368      0.3668
    173  OD1       82.1020  135.5800  127.1380 O.co2 368  ASP368     -0.2456
    174  OD2       82.0630  136.3580  129.1700 O.co2 368  ASP368     -0.2456
@<TRIPOS>BOND
     1    46    47    1
     2    52    51   ar
     3    87    86    1
     4    40    39    2
     5    86    83    1
     6    47    48    1
     7    47    50    1
     8    48    49    2
     9    51    53   ar
    10    51    50    1
    11    83    84    1
    12    83    82    1
    13    84    85    2
    14    39    38    1
    15    79    78    2
    16    57    56    2
    17    54    55    1
    18    82    78   am
    19    78    77    1
    20    38    41    1
    21    38    37    1
    22    58    55    1
    23    58    59    1
    24    44    45    1
    25    44    43    1
    26    41    42    1
    27    42    43    1
    28    56    55    1
    29    81    80    1
    30    61    59   ar
    31    80    77    1
    32    59    60   ar
    33    77    76    1
    34    76    68   am
    35    20    18   am
    36    62    63    1
    37    18    17    1
    38    18    19    2
    39    17    14    1
    40    68    69    2
    41    68    67    1
    42    63    64    1
    43    65    64    2
    44     7     6   ar
    45    64    66   am
    46    88    89    1
    47    13    14    1
    48    13    11   am
    49    14    15    1
    50    66    67    1
    51   147   145    1
    52     2     3    1
    53     2     1    1
    54     2     5    1
    55    10    11    1
    56    10     9    1
    57    67    70    1
    58    11    12    2
    59     6     5    1
    60     6     8   ar
    61     3     4    2
    62   145   146    1
    63   145   142    1
    64   133   134    1
    65   134   135    1
    66    72    71   ar
    67    72    74   ar
    68   144   143    2
    69    70    71    1
    70    89    90    1
    71   143   142    1
    72    90    91    2
    73    15    16    2
    74    15    21   am
    75   162   161    2
    76    71    73   ar
    77    74    75   ar
    78   142   141    1
    79   135   136    2
    80   135   137   am
    81   165   163    1
    82   141   139   am
    83    21    22    1
    84   166   164    1
    85   163   164    1
    86   163   160    1
    87   161   160    1
    88    75    73   ar
    89   137   138    1
    90    92    93    1
    91   148   149    1
    92   160   159    1
    93   139   138    1
    94   139   140    2
    95   159   150   am
    96    32    31    2
    97    94    93    1
    98    94    95    2
    99    22    25    1
   100    22    23    1
   101    25    26    1
   102    93    96    1
   103    29    23   am
   104    29    30    1
   105    96    97    1
   106   149   150    1
   107   149   152    1
   108   150   151    2
   109   170   169    2
   110    31    30    1
   111    23    24    2
   112   169   168    1
   113    97    99   ar
   114    97    98   ar
   115   116   117    1
   116   116   115    1
   117   167   168    1
   118    30    33    1
   119   168   171    1
   120    26    28   am
   121    26    27    2
   122   152   153    1
   123   115   114    1
   124   114   113    1
   125   153   154    1
   126    36    34   am
   127    35    34    2
   128    34    33    1
   129   173   172   ar
   130   132   131    1
   131   171   172    1
   132   154   155    1
   133   155   156    2
   134   113   110    1
   135   156   158    1
   136   156   157    1
   137   172   174   ar
   138   131   128    1
   139   105   104    1
   140   105   106    1
   141   110   111    1
   142   110   109    1
   143   128   127    1
   144   128   129    1
   145   112   111    2
   146   108   106   ar
   147   111   118   am
   148   130   129    2
   149   104   101    1
   150   101   100    1
   151   101   102    1
   152   106   107   ar
   153   118   119    1
   154   103   102    2
   155   123   124    1
   156   123   122    1
   157   119   122    1
   158   119   120    1
   159   121   120    2
   160   125   124    1
   161   125   126    1
