@<TRIPOS>MOLECULE
tmp/3d2iA00.pdb
 218 202 0 0 0
SMALL
GASTEIGER

@<TRIPOS>ATOM
      1  N         -0.3730   28.7860    2.7770 N.3    13  LEU13      -0.1231
      2  CA         0.5340   29.9080    3.0030 C.3    13  LEU13       0.1693
      3  C          1.8170   29.7550    2.1900 C.2    13  LEU13       0.2592
      4  O          2.6280   30.6790    2.1150 O.2    13  LEU13      -0.2718
      5  CB         0.8750   30.0380    4.4940 C.3    13  LEU13       0.0284
      6  CG        -0.1490   30.6750    5.4380 C.3    13  LEU13       0.0019
      7  CD1        0.1880   30.3500    6.8790 C.3    13  LEU13       0.0001
      8  CD2       -0.2230   32.1800    5.2450 C.3    13  LEU13       0.0001
      9  N          1.9970   28.5830    1.5870 N.am   14  GLY14      -0.1957
     10  CA         3.1620   28.3210    0.7460 C.3    14  GLY14       0.1869
     11  C          3.3870   26.8490    0.4680 C.2    14  GLY14       0.2309
     12  O          2.8690   25.9850    1.1810 O.2    14  GLY14      -0.2863
     13  N          9.4380   19.5660    1.1930 N.3    18  PHE18      -0.1241
     14  CA         9.0620   18.5170    2.1400 C.3    18  PHE18       0.1605
     15  C          7.5710   18.4910    2.4800 C.2    18  PHE18       0.2264
     16  O          7.0590   17.4800    2.9720 O.2    18  PHE18      -0.2867
     17  CB         9.9010   18.6240    3.4140 C.3    18  PHE18       0.0534
     18  CG        11.1930   17.8620    3.3490 C.ar   18  PHE18      -0.0203
     19  CD1       12.3350   18.4410    2.7970 C.ar   18  PHE18      -0.0042
     20  CD2       11.2680   16.5590    3.8350 C.ar   18  PHE18      -0.0042
     21  CE1       13.5400   17.7320    2.7330 C.ar   18  PHE18      -0.0003
     22  CE2       12.4640   15.8400    3.7770 C.ar   18  PHE18      -0.0003
     23  CZ        13.6030   16.4280    3.2240 C.ar   18  PHE18      -0.0000
     24  N          2.4810   24.5150    3.8420 N.3    21  VAL21      -0.1245
     25  CA         2.1060   25.3010    5.0130 C.3    21  VAL21       0.1561
     26  C          0.6900   25.8430    4.8370 C.2    21  VAL21       0.2260
     27  O          0.3700   26.4370    3.8050 O.2    21  VAL21      -0.2867
     28  CB         3.0590   26.4940    5.2430 C.3    21  VAL21       0.0252
     29  CG1        2.9780   26.9570    6.6930 C.3    21  VAL21       0.0019
     30  CG2        4.4950   26.1360    4.8720 C.3    21  VAL21       0.0019
     31  N         -0.1050   28.7950   12.0820 N.3    34  ALA34      -0.1245
     32  CA         0.2520   28.1430   10.8330 C.3    34  ALA34       0.1562
     33  C          0.6140   26.6900   11.1140 C.2    34  ALA34       0.2260
     34  O          1.2690   26.3870   12.1210 O.2    34  ALA34      -0.2867
     35  CB         1.4130   28.8650   10.1680 C.3    34  ALA34       0.0290
     36  N          2.5150   23.5150    9.2600 N.3    36  LYS36      -0.1245
     37  CA         3.2760   22.9050    8.1780 C.3    36  LYS36       0.1561
     38  C          3.0370   21.4040    8.1850 C.2    36  LYS36       0.2260
     39  O          3.1970   20.7470    9.2150 O.2    36  LYS36      -0.2867
     40  CB         4.7710   23.2010    8.2890 C.3    36  LYS36       0.0271
     41  CG         5.4860   23.0700    6.9530 C.3    36  LYS36       0.0035
     42  CD         6.9390   22.6730    7.1190 C.3    36  LYS36       0.0206
     43  CE         7.6910   22.7610    5.7980 C.3    36  LYS36       0.1093
     44  NZ         8.0430   24.1690    5.4610 N.3    36  LYS36      -0.1314
     45  N          4.1420   17.8530    6.9570 N.3    38  LEU38      -0.1245
     46  CA         5.2480   17.0460    6.4450 C.3    38  LEU38       0.1561
     47  C          4.8050   15.6000    6.3010 C.2    38  LEU38       0.2260
     48  O          4.0440   15.1040    7.1300 O.2    38  LEU38      -0.2867
     49  CB         6.4330   17.1060    7.4030 C.3    38  LEU38       0.0270
     50  CG         7.0060   18.4770    7.7470 C.3    38  LEU38       0.0019
     51  CD1        7.7240   18.4190    9.0790 C.3    38  LEU38       0.0001
     52  CD2        7.9300   18.9530    6.6480 C.3    38  LEU38       0.0001
     53  N         10.1840   11.9420    5.0540 N.3    43  LEU43      -0.1245
     54  CA        11.1560   12.2180    6.1120 C.3    43  LEU43       0.1561
     55  C         12.0770   11.0340    6.3730 C.2    43  LEU43       0.2260
     56  O         13.2830   11.2110    6.5680 O.2    43  LEU43      -0.2867
     57  CB        10.4520   12.6200    7.4120 C.3    43  LEU43       0.0270
     58  CG         9.7770   13.9890    7.5100 C.3    43  LEU43       0.0019
     59  CD1        8.9770   14.0660    8.7940 C.3    43  LEU43       0.0001
     60  CD2       10.7920   15.1260    7.4410 C.3    43  LEU43       0.0001
     61  N         16.0220   12.1860    7.8210 N.3    48  VAL48      -0.1245
     62  CA        16.0760   13.4550    8.5520 C.3    48  VAL48       0.1561
     63  C         15.1360   13.5030    9.7630 C.2    48  VAL48       0.2260
     64  O         14.9350   14.5660   10.3570 O.2    48  VAL48      -0.2867
     65  CB        15.8070   14.6720    7.6180 C.3    48  VAL48       0.0252
     66  CG1       17.0430   15.0030    6.7930 C.3    48  VAL48       0.0019
     67  CG2       14.5890   14.4260    6.7240 C.3    48  VAL48       0.0019
     68  N         16.6630   15.1280   12.6960 N.3    51  GLN51      -0.1231
     69  CA        16.8560   16.5680   12.5070 C.3    51  GLN51       0.1698
     70  C         15.6060   17.3600   12.8770 C.2    51  GLN51       0.2592
     71  O         15.6930   18.4200   13.5050 O.2    51  GLN51      -0.2718
     72  CB        17.2660   16.8760   11.0650 C.3    51  GLN51       0.0381
     73  CG        18.7680   16.8630   10.8250 C.3    51  GLN51       0.0905
     74  CD        19.1500   17.3260    9.4250 C.2    51  GLN51       0.2608
     75  OE1       18.4670   18.1570    8.8190 O.2    51  GLN51      -0.2717
     76  NE2       20.2520   16.7890    8.9080 N.am   51  GLN51      -0.0878
     77  N         14.4490   16.8320   12.4850 N.am   52  LEU52      -0.1980
     78  CA        13.1650   17.4190   12.8370 C.3    52  LEU52       0.1596
     79  C         12.9540   17.3860   14.3460 C.2    52  LEU52       0.2287
     80  O         12.4550   18.3510   14.9200 O.2    52  LEU52      -0.2864
     81  CB        12.0260   16.6920   12.1220 C.3    52  LEU52       0.0297
     82  CG        10.6370   17.3160   12.2290 C.3    52  LEU52       0.0022
     83  CD1       10.5710   18.6180   11.4470 C.3    52  LEU52       0.0001
     84  CD2        9.5890   16.3420   11.7330 C.3    52  LEU52       0.0001
     85  N         15.1960   20.0240   15.7240 N.3    55  GLU55      -0.1245
     86  CA        14.6220   21.3490   15.4930 C.3    55  GLU55       0.1567
     87  C         13.5900   21.6940   16.5620 C.2    55  GLU55       0.2260
     88  O         13.6270   22.7870   17.1280 O.2    55  GLU55      -0.2867
     89  CB        13.9920   21.4480   14.1030 C.3    55  GLU55       0.0388
     90  CG        13.4450   22.8390   13.7840 C.3    55  GLU55       0.1160
     91  CD        12.5490   22.8700   12.5630 C.2    55  GLU55       0.3649
     92  OE1       12.6010   21.9270   11.7470 O.co2  55  GLU55      -0.2457
     93  OE2       11.7880   23.8480   12.4200 O.co2  55  GLU55      -0.2457
     94  N         13.8790   24.6770   19.2760 N.3    59  GLN59      -0.1245
     95  CA        12.8590   25.7160   19.2700 C.3    59  GLN59       0.1566
     96  C         12.0130   25.7500   20.5430 C.2    59  GLN59       0.2260
     97  O         11.2770   26.7080   20.7780 O.2    59  GLN59      -0.2867
     98  CB        11.9650   25.5650   18.0410 C.3    59  GLN59       0.0367
     99  CG        12.5760   26.0960   16.7490 C.3    59  GLN59       0.0905
    100  CD        12.2440   27.5520   16.4960 C.2    59  GLN59       0.2608
    101  OE1       12.5060   28.4190   17.3290 O.2    59  GLN59      -0.2717
    102  NE2       11.6640   27.8280   15.3370 N.am   59  GLN59      -0.0878
    103  N         10.5930   33.1790   14.7300 N.3    68  LEU68      -0.1245
    104  CA         9.2770   32.5410   14.5780 C.3    68  LEU68       0.1561
    105  C          9.1530   31.3590   15.5400 C.2    68  LEU68       0.2260
    106  O          9.9530   30.4220   15.4880 O.2    68  LEU68      -0.2867
    107  CB         9.0310   32.0610   13.1200 C.3    68  LEU68       0.0270
    108  CG         7.5380   31.8230   12.7560 C.3    68  LEU68       0.0019
    109  CD1        6.8660   33.1360   12.3560 C.3    68  LEU68       0.0001
    110  CD2        7.0440   30.5540   11.7530 C.3    68  LEU68       0.0001
    111  N          8.0990   27.9440   17.3130 N.3    70  LEU70      -0.1245
    112  CA         7.6100   26.5990   17.0200 C.3    70  LEU70       0.1561
    113  C          7.0770   26.0430   18.3360 C.2    70  LEU70       0.2260
    114  O          7.8420   25.8230   19.2820 O.2    70  LEU70      -0.2867
    115  CB         8.7270   25.7150   16.4550 C.3    70  LEU70       0.0270
    116  CG         8.3810   24.4600   15.6420 C.3    70  LEU70       0.0019
    117  CD1        9.6020   23.9900   14.8900 C.3    70  LEU70       0.0001
    118  CD2        7.8410   23.3340   16.5030 C.3    70  LEU70       0.0001
    119  N          3.7370   20.5150   12.1410 N.3    82  LEU82      -0.1245
    120  CA         4.4270   21.4760   12.9940 C.3    82  LEU82       0.1561
    121  C          3.5070   22.6470   13.3430 C.2    82  LEU82       0.2260
    122  O          2.9750   23.3160   12.4540 O.2    82  LEU82      -0.2867
    123  CB         5.6900   22.0000   12.3080 C.3    82  LEU82       0.0270
    124  CG         6.7920   21.0450   11.8400 C.3    82  LEU82       0.0019
    125  CD1        7.6690   21.7580   10.8270 C.3    82  LEU82       0.0001
    126  CD2        7.6330   20.5280   13.0000 C.3    82  LEU82       0.0001
    127  N          3.0820   26.1990   14.2820 N.3    84  LEU84      -0.1231
    128  CA         3.9380   27.3610   14.0650 C.3    84  LEU84       0.1693
    129  C          3.2490   28.7020   14.3010 C.2    84  LEU84       0.2592
    130  O          2.0420   28.8420   14.0850 O.2    84  LEU84      -0.2718
    131  CB         4.4940   27.3260   12.6390 C.3    84  LEU84       0.0284
    132  CG         5.5610   26.2830   12.3000 C.3    84  LEU84       0.0019
    133  CD1        5.6840   26.1210   10.7910 C.3    84  LEU84       0.0001
    134  CD2        6.9090   26.6490   12.9260 C.3    84  LEU84       0.0001
    135  N          4.0330   29.6840   14.7450 N.am   85  GLU85      -0.1966
    136  CA         3.5910   31.0770   14.7960 C.3    85  GLU85       0.1733
    137  C          3.3150   31.5400   13.3680 C.2    85  GLU85       0.2616
    138  O          4.0800   31.2360   12.4550 O.2    85  GLU85      -0.2715
    139  CB         4.6620   31.9700   15.4380 C.3    85  GLU85       0.0429
    140  CG         4.2140   33.4080   15.6930 C.3    85  GLU85       0.1163
    141  CD         5.3660   34.3800   15.9440 C.2    85  GLU85       0.3649
    142  OE1        5.2780   35.5250   15.4550 O.co2  85  GLU85      -0.2457
    143  OE2        6.3510   34.0230   16.6280 O.co2  85  GLU85      -0.2457
    144  N          2.2140   32.2610   13.1850 N.am   86  TYR86      -0.1960
    145  CA         1.8200   32.7640   11.8750 C.3    86  TYR86       0.1771
    146  C          2.4810   34.1110   11.6100 C.2    86  TYR86       0.2619
    147  O          2.4710   34.9950   12.4700 O.2    86  TYR86      -0.2715
    148  CB         0.2880   32.8330   11.7870 C.3    86  TYR86       0.0574
    149  CG        -0.2900   33.6720   10.6640 C.ar   86  TYR86      -0.0198
    150  CD1       -1.1070   34.7670   10.9510 C.ar   86  TYR86      -0.0009
    151  CD2       -0.0440   33.3640    9.3220 C.ar   86  TYR86      -0.0009
    152  CE1       -1.6550   35.5430    9.9380 C.ar   86  TYR86       0.0417
    153  CE2       -0.5900   34.1380    8.2960 C.ar   86  TYR86       0.0417
    154  CZ        -1.3960   35.2250    8.6140 C.ar   86  TYR86       0.1957
    155  OH        -1.9460   36.0030    7.6180 O.3    86  TYR86      -0.2866
    156  N          3.0840   34.2430   10.4310 N.am   87  ALA87      -0.1977
    157  CA         3.7130   35.4930   10.0160 C.3    87  ALA87       0.1597
    158  C          2.8610   36.1850    8.9430 C.2    87  ALA87       0.2287
    159  O          2.9390   35.8300    7.7650 O.2    87  ALA87      -0.2864
    160  CB         5.1220   35.2390    9.5230 C.3    87  ALA87       0.0319
    161  N          3.8970   37.4210    5.2600 N.3    90  GLY90      -0.1210
    162  CA         4.5650   36.4490    4.3900 C.3    90  GLY90       0.1956
    163  C          6.0760   36.3560    4.5200 C.2    90  GLY90       0.2612
    164  O          6.6440   36.6790    5.5670 O.2    90  GLY90      -0.2717
    165  N          6.7190   35.9020    3.4450 N.am   91  THR91      -0.1952
    166  CA         8.1710   35.7380    3.4150 C.3    91  THR91       0.1897
    167  C          8.8560   36.9870    2.8780 C.2    91  THR91       0.2313
    168  O          8.2480   37.7740    2.1490 O.2    91  THR91      -0.2863
    169  CB         8.6050   34.5470    2.5320 C.3    91  THR91       0.1794
    170  OG1        8.3540   34.8510    1.1520 O.3    91  THR91      -0.2208
    171  CG2        7.8740   33.2600    2.9260 C.3    91  THR91       0.0378
    172  N         13.6860   31.6080    4.2470 N.3   135  ASN135     -0.1240
    173  CA        13.6290   31.2740    5.6720 C.3   135  ASN135      0.1653
    174  C         13.5030   32.5010    6.5680 C.2   135  ASN135      0.2266
    175  O         13.7160   32.4210    7.7790 O.2   135  ASN135     -0.2867
    176  CB        14.8420   30.4310    6.0880 C.3   135  ASN135      0.1155
    177  CG        14.7810   29.0050    5.5550 C.2   135  ASN135      0.2627
    178  OD1       15.8140   28.3790    5.3290 O.2   135  ASN135     -0.2716
    179  ND2       13.5710   28.4860    5.3530 N.am  135  ASN135     -0.0877
    180  N         10.7410   35.4740    7.5900 N.3   137  LEU137     -0.1245
    181  CA         9.3250   35.8260    7.5300 C.3   137  LEU137      0.1561
    182  C          9.0350   37.1690    8.2070 C.2   137  LEU137      0.2260
    183  O          9.8390   37.6530    9.0040 O.2   137  LEU137     -0.2867
    184  CB         8.4880   34.7070    8.1470 C.3   137  LEU137      0.0270
    185  CG         8.4020   33.4220    7.3160 C.3   137  LEU137      0.0019
    186  CD1        8.3470   32.2120    8.2170 C.3   137  LEU137      0.0001
    187  CD2        7.1960   33.4470    6.4050 C.3   137  LEU137      0.0001
    188  N         13.0710   31.7710   10.6550 N.3   147  ALA147     -0.1231
    189  CA        12.3940   30.4880   10.7780 C.3   147  ALA147      0.1694
    190  C         13.2140   29.3590   10.1650 C.2   147  ALA147      0.2592
    191  O         14.2340   29.6000    9.5140 O.2   147  ALA147     -0.2718
    192  CB        11.0170   30.5580   10.1360 C.3   147  ALA147      0.0304
    193  N         12.7490   28.1300   10.3890 N.am  148  ASP148     -0.1974
    194  CA        13.3560   26.9050    9.8580 C.3   148  ASP148      0.1709
    195  C         14.7120   26.6110   10.4930 C.2   148  ASP148      0.2293
    196  O         15.7590   26.9780    9.9560 O.2   148  ASP148     -0.2864
    197  CB        13.4610   26.9510    8.3310 C.3   148  ASP148      0.1436
    198  CG        13.3610   25.5790    7.6910 C.2   148  ASP148      0.3671
    199  OD1       12.7900   25.5030    6.5820 O.co2 148  ASP148     -0.2456
    200  OD2       13.8410   24.5840    8.2850 O.co2 148  ASP148     -0.2456
    201  N         15.8290   23.6060   10.8790 N.3   150  GLY150     -0.1210
    202  CA        16.0020   22.2120   10.4760 C.3   150  GLY150      0.1956
    203  C         17.4520   21.8170   10.2750 C.2   150  GLY150      0.2611
    204  O         17.8610   20.7170   10.6570 O.2   150  GLY150     -0.2717
    205  N         18.2280   22.7180    9.6760 N.am  151  TRP151     -0.1976
    206  CA        19.6460   22.4760    9.4180 C.3   151  TRP151      0.1640
    207  C         20.5240   23.1300   10.4810 C.2   151  TRP151      0.2290
    208  O         21.7240   23.3300   10.2760 O.2   151  TRP151     -0.2864
    209  CB        20.0290   22.9540    8.0140 C.3   151  TRP151      0.0576
    210  CG        19.2340   22.2850    6.9330 C.ar  151  TRP151      0.0006
    211  CD1       18.1380   22.7890    6.2880 C.ar  151  TRP151      0.0946
    212  CD2       19.4580   20.9810    6.3840 C.ar  151  TRP151      0.0152
    213  NE1       17.6710   21.8830    5.3650 N.ar  151  TRP151     -0.2442
    214  CE2       18.4610   20.7640    5.4020 C.ar  151  TRP151      0.0810
    215  CE3       20.4060   19.9740    6.6210 C.ar  151  TRP151      0.0012
    216  CZ2       18.3830   19.5790    4.6570 C.ar  151  TRP151      0.0191
    217  CZ3       20.3300   18.7960    5.8800 C.ar  151  TRP151      0.0001
    218  CH2       19.3230   18.6100    4.9090 C.ar  151  TRP151      0.0015
@<TRIPOS>BOND
     1    11    10    1
     2    11    12    2
     3    10     9    1
     4   170   169    1
     5    13    14    1
     6     9     3   am
     7     4     3    2
     8    14    15    1
     9    14    17    1
    10   168   167    2
    11     3     2    1
    12    15    16    2
    13   169   171    1
    14   169   166    1
    15    21    19   ar
    16    21    23   ar
    17     1     2    1
    18    19    18   ar
    19   167   166    1
    20     2     5    1
    21    23    22   ar
    22    18    17    1
    23    18    20   ar
    24   166   165    1
    25   165   163   am
    26    22    20   ar
    27    27    26    2
    28    24    25    1
    29   172   173    1
    30   162   163    1
    31   162   161    1
    32     5     6    1
    33   163   164    2
    34   216   218   ar
    35   216   214   ar
    36    26    25    1
    37    30    28    1
    38   218   217   ar
    39    25    28    1
    40    53    54    1
    41    28    29    1
    42     8     6    1
    43   178   177    2
    44   179   177   am
    45   213   214   ar
    46   213   211   ar
    47   214   212   ar
    48     6     7    1
    49    44    43    1
    50   177   176    1
    51   173   176    1
    52   173   174    1
    53    43    42    1
    54   217   215   ar
    55    54    55    1
    56    54    57    1
    57   211   210   ar
    58    47    46    1
    59    47    48    2
    60    55    56    2
    61   212   215   ar
    62   212   210   ar
    63   187   185    1
    64    46    45    1
    65    46    49    1
    66   174   175    2
    67   199   198   ar
    68    52    50    1
    69    67    65    1
    70    66    65    1
    71   210   209    1
    72    41    42    1
    73    41    40    1
    74   185   184    1
    75   185   186    1
    76    49    50    1
    77    57    58    1
    78    60    58    1
    79    58    59    1
    80   181   180    1
    81   181   184    1
    82   181   182    1
    83   155   154    1
    84    65    62    1
    85   198   200   ar
    86   198   197    1
    87    50    51    1
    88   159   158    2
    89    61    62    1
    90   209   206    1
    91    37    38    1
    92    37    40    1
    93    37    36    1
    94    38    39    2
    95   182   183    2
    96   153   154   ar
    97   153   151   ar
    98   197   194    1
    99    62    63    1
   100   154   152   ar
   101    75    74    2
   102    76    74   am
   103   158   157    1
   104   151   149   ar
   105   206   205    1
   106   206   207    1
   107    74    73    1
   108   191   190    2
   109   160   157    1
   110   205   203   am
   111    63    64    2
   112   194   193    1
   113   194   195    1
   114   152   150   ar
   115   196   195    2
   116   157   156    1
   117   192   189    1
   118   190   193   am
   119   190   189    1
   120    35    32    1
   121   203   202    1
   122   203   204    2
   123   208   207    2
   124   156   146   am
   125   202   201    1
   126   188   189    1
   127   149   150   ar
   128   149   148    1
   129   133   132    1
   130    73    72    1
   131   125   124    1
   132    32    33    1
   133    32    31    1
   134    72    69    1
   135    33    34    2
   136    83    82    1
   137   146   145    1
   138   146   147    2
   139    84    82    1
   140    92    91   ar
   141   110   108    1
   142   148   145    1
   143   124   123    1
   144   124   126    1
   145   145   144    1
   146    81    82    1
   147    81    78    1
   148   119   120    1
   149   132   131    1
   150   132   134    1
   151   123   120    1
   152   109   108    1
   153    93    91   ar
   154   122   121    2
   155   138   137    2
   156    77    78    1
   157    77    70   am
   158    69    68    1
   159    69    70    1
   160    91    90    1
   161   131   128    1
   162   108   107    1
   163    78    79    1
   164    70    71    2
   165   120   121    1
   166   107   104    1
   167   144   137   am
   168   137   136    1
   169    90    89    1
   170   128   127    1
   171   128   129    1
   172   130   129    2
   173    89    86    1
   174   129   135   am
   175    79    80    2
   176   104   103    1
   177   104   105    1
   178   135   136    1
   179   136   139    1
   180   117   116    1
   181   102   100   am
   182   139   140    1
   183   142   141   ar
   184   106   105    2
   185    86    85    1
   186    86    87    1
   187   116   115    1
   188   116   118    1
   189   140   141    1
   190   141   143   ar
   191   115   112    1
   192   100    99    1
   193   100   101    2
   194    87    88    2
   195    99    98    1
   196   112   111    1
   197   112   113    1
   198    98    95    1
   199   113   114    2
   200    95    94    1
   201    95    96    1
   202    96    97    2
