@<TRIPOS>MOLECULE
tmp/3d2kA00.pdb
 219 204 0 0 0
SMALL
GASTEIGER

@<TRIPOS>ATOM
      1  N         29.1140   13.3120   26.2440 N.3    12  LEU12      -0.1231
      2  CA        28.2220   14.4700   26.1290 C.3    12  LEU12       0.1693
      3  C         26.9270   14.2760   26.9180 C.2    12  LEU12       0.2592
      4  O         26.2640   15.2490   27.2990 O.2    12  LEU12      -0.2718
      5  CB        27.9130   14.7860   24.6650 C.3    12  LEU12       0.0284
      6  CG        29.0630   15.3540   23.8420 C.3    12  LEU12       0.0019
      7  CD1       28.6640   15.4220   22.3740 C.3    12  LEU12       0.0001
      8  CD2       29.5280   16.7280   24.3690 C.3    12  LEU12       0.0001
      9  N         26.5800   13.0150   27.1620 N.am   13  GLY13      -0.1957
     10  CA        25.3500   12.6780   27.8580 C.3    13  GLY13       0.1869
     11  C         25.1770   11.1890   28.0500 C.2    13  GLY13       0.2309
     12  O         25.5840   10.3820   27.2020 O.2    13  GLY13      -0.2863
     13  N         19.3430    4.0820   27.0140 N.3    17  PHE17      -0.1241
     14  CA        19.6300    3.1690   25.9120 C.3    17  PHE17       0.1605
     15  C         21.0850    3.2530   25.4290 C.2    17  PHE17       0.2264
     16  O         21.6040    2.2990   24.8350 O.2    17  PHE17      -0.2867
     17  CB        18.6390    3.3850   24.7620 C.3    17  PHE17       0.0534
     18  CG        17.2370    2.9120   25.0700 C.ar   17  PHE17      -0.0203
     19  CD1       16.3190    3.7570   25.6910 C.ar   17  PHE17      -0.0042
     20  CD2       16.8380    1.6210   24.7440 C.ar   17  PHE17      -0.0042
     21  CE1       15.0270    3.3210   25.9810 C.ar   17  PHE17      -0.0003
     22  CE2       15.5510    1.1800   25.0270 C.ar   17  PHE17      -0.0003
     23  CZ        14.6440    2.0300   25.6480 C.ar   17  PHE17      -0.0000
     24  N         26.3470    9.3660   24.6420 N.3    20  VAL20      -0.1245
     25  CA        26.7990   10.2500   23.5800 C.3    20  VAL20       0.1561
     26  C         28.2270   10.7380   23.8230 C.2    20  VAL20       0.2260
     27  O         28.5870   11.0870   24.9460 O.2    20  VAL20      -0.2867
     28  CB        25.9140   11.4890   23.4050 C.3    20  VAL20       0.0252
     29  CG1       25.9150   11.8860   21.9400 C.3    20  VAL20       0.0019
     30  CG2       24.4950   11.2610   23.9210 C.3    20  VAL20       0.0019
     31  N         28.9710   14.1880   16.7470 N.3    33  ALA33      -0.1245
     32  CA        28.6600   13.3750   17.9210 C.3    33  ALA33       0.1562
     33  C         28.3850   11.9280   17.5420 C.2    33  ALA33       0.2260
     34  O         27.9280   11.6250   16.4290 O.2    33  ALA33      -0.2867
     35  CB        27.5040   13.9700   18.7350 C.3    33  ALA33       0.0290
     36  N         26.5830    8.4560   19.0990 N.3    35  LYS35      -0.1245
     37  CA        25.7190    7.8770   20.1160 C.3    35  LYS35       0.1561
     38  C         25.8330    6.3510   20.0320 C.2    35  LYS35       0.2260
     39  O         25.5860    5.7420   18.9780 O.2    35  LYS35      -0.2867
     40  CB        24.2820    8.3740   19.9230 C.3    35  LYS35       0.0271
     41  CG        23.2210    7.7290   20.7880 C.3    35  LYS35       0.0035
     42  CD        22.9270    8.5110   22.0360 C.3    35  LYS35       0.0206
     43  CE        21.7720    7.8800   22.8270 C.3    35  LYS35       0.1093
     44  NZ        20.4300    8.5300   22.6280 N.3    35  LYS35      -0.1314
     45  N         24.4960    2.7990   21.0570 N.3    37  LEU37      -0.1245
     46  CA        23.3460    2.0680   21.5760 C.3    37  LEU37       0.1561
     47  C         23.7240    0.6170   21.7080 C.2    37  LEU37       0.2260
     48  O         24.2730    0.0280   20.7740 O.2    37  LEU37      -0.2867
     49  CB        22.1180    2.1820   20.6610 C.3    37  LEU37       0.0270
     50  CG        21.4540    3.5160   20.3210 C.3    37  LEU37       0.0019
     51  CD1       21.5920    4.5000   21.4460 C.3    37  LEU37       0.0001
     52  CD2       22.0530    4.0880   19.0640 C.3    37  LEU37       0.0001
     53  N         18.1430   -2.5580   23.7600 N.3    42  LEU42      -0.1245
     54  CA        17.1530   -2.3870   22.7030 C.3    42  LEU42       0.1561
     55  C         16.2230   -3.5890   22.5920 C.2    42  LEU42       0.2260
     56  O         15.0100   -3.4200   22.4650 O.2    42  LEU42      -0.2867
     57  CB        17.8210   -2.1010   21.3520 C.3    42  LEU42       0.0270
     58  CG        18.7360   -0.8810   21.1900 C.3    42  LEU42       0.0019
     59  CD1       19.1420   -0.7610   19.7370 C.3    42  LEU42       0.0001
     60  CD2       18.0990    0.4210   21.6700 C.3    42  LEU42       0.0001
     61  N         12.6020   -2.2390   21.1680 N.3    47  VAL47      -0.1245
     62  CA        12.5800   -1.0070   20.3740 C.3    47  VAL47       0.1561
     63  C         13.4900   -1.0790   19.1370 C.2    47  VAL47       0.2260
     64  O         13.6850   -0.0730   18.4540 O.2    47  VAL47      -0.2867
     65  CB        12.9160    0.2570   21.2240 C.3    47  VAL47       0.0252
     66  CG1       11.9460    0.4070   22.3970 C.3    47  VAL47       0.0019
     67  CG2       14.3570    0.2240   21.7120 C.3    47  VAL47       0.0019
     68  N         12.0760    0.3570   15.9770 N.3    50  GLN50      -0.1231
     69  CA        11.9410    1.8100   16.0960 C.3    50  GLN50       0.1698
     70  C         13.1810    2.5410   15.6020 C.2    50  GLN50       0.2592
     71  O         13.0810    3.5770   14.9340 O.2    50  GLN50      -0.2718
     72  CB        11.6890    2.2110   17.5440 C.3    50  GLN50       0.0381
     73  CG        10.2780    2.0200   18.0210 C.3    50  GLN50       0.0905
     74  CD         9.9990    2.8440   19.2540 C.2    50  GLN50       0.2608
     75  OE1       10.6510    2.6760   20.2870 O.2    50  GLN50      -0.2717
     76  NE2        9.0360    3.7560   19.1510 N.am   50  GLN50      -0.0878
     77  N         14.3460    1.9970   15.9470 N.am   51  LEU51      -0.1980
     78  CA        15.6240    2.5640   15.5550 C.3    51  LEU51       0.1596
     79  C         15.7620    2.5660   14.0360 C.2    51  LEU51       0.2287
     80  O         16.2510    3.5350   13.4550 O.2    51  LEU51      -0.2864
     81  CB        16.7510    1.7610   16.1990 C.3    51  LEU51       0.0297
     82  CG        18.1920    2.2200   16.0120 C.3    51  LEU51       0.0022
     83  CD1       18.4370    3.5600   16.7050 C.3    51  LEU51       0.0001
     84  CD2       19.1160    1.1440   16.5570 C.3    51  LEU51       0.0001
     85  N         13.6130    5.3900   12.8290 N.3    54  GLU54      -0.1245
     86  CA        14.2840    6.6810   13.0130 C.3    54  GLU54       0.1567
     87  C         15.2920    6.9420   11.9070 C.2    54  GLU54       0.2260
     88  O         15.3860    8.0560   11.3700 O.2    54  GLU54      -0.2867
     89  CB        14.9970    6.7540   14.3700 C.3    54  GLU54       0.0388
     90  CG        15.7960    8.0590   14.5580 C.3    54  GLU54       0.1160
     91  CD        16.4990    8.1630   15.8940 C.2    54  GLU54       0.3649
     92  OE1       16.5940    7.1440   16.6040 O.co2  54  GLU54      -0.2457
     93  OE2       16.9560    9.2750   16.2300 O.co2  54  GLU54      -0.2457
     94  N         15.1640   10.1140    9.3730 N.3    58  GLN58      -0.1245
     95  CA        16.3160   11.0250    9.3190 C.3    58  GLN58       0.1566
     96  C         17.1250   10.9490    8.0100 C.2    58  GLN58       0.2260
     97  O         18.1430   11.6370    7.8620 O.2    58  GLN58      -0.2867
     98  CB        17.2420   10.7630   10.5060 C.3    58  GLN58       0.0367
     99  CG        16.7340   11.3000   11.8310 C.3    58  GLN58       0.0905
    100  CD        17.2110   12.7150   12.1090 C.2    58  GLN58       0.2608
    101  OE1       16.8210   13.6570   11.4260 O.2    58  GLN58      -0.2717
    102  NE2       18.0570   12.8680   13.1260 N.am   58  GLN58      -0.0878
    103  N         18.3380   18.3290   14.2210 N.3    67  LEU67      -0.1245
    104  CA        19.6600   17.6880   14.2700 C.3    67  LEU67       0.1561
    105  C         19.7840   16.6020   13.1960 C.2    67  LEU67       0.2260
    106  O         18.9490   15.6940   13.1150 O.2    67  LEU67      -0.2867
    107  CB        19.9430   17.0880   15.6610 C.3    67  LEU67       0.0270
    108  CG        21.4260   16.9190   16.0380 C.3    67  LEU67       0.0019
    109  CD1       22.0680   18.2590   16.3280 C.3    67  LEU67       0.0001
    110  CD2       21.5900   16.0170   17.2270 C.3    67  LEU67       0.0001
    111  N         25.1710    5.7830   16.0350 N.3    81  LEU81      -0.1245
    112  CA        24.6130    6.8720   15.2580 C.3    81  LEU81       0.1561
    113  C         25.6710    7.9610   15.0870 C.2    81  LEU81       0.2260
    114  O         26.3440    8.3240   16.0580 O.2    81  LEU81      -0.2867
    115  CB        23.3840    7.4460   15.9740 C.3    81  LEU81       0.0270
    116  CG        22.2020    6.5160   16.3060 C.3    81  LEU81       0.0019
    117  CD1       21.2260    7.1910   17.2600 C.3    81  LEU81       0.0001
    118  CD2       21.4660    6.0310   15.0550 C.3    81  LEU81       0.0001
    119  N         25.9760   11.7600   14.3920 N.3    83  LEU83      -0.1231
    120  CA        25.0900   12.9150   14.4910 C.3    83  LEU83       0.1693
    121  C         25.8360   14.2410   14.3560 C.2    83  LEU83       0.2592
    122  O         27.0130   14.3350   14.6820 O.2    83  LEU83      -0.2718
    123  CB        24.3510   12.8880   15.8400 C.3    83  LEU83       0.0284
    124  CG        23.4260   11.6930   16.1170 C.3    83  LEU83       0.0019
    125  CD1       23.1760   11.4810   17.6080 C.3    83  LEU83       0.0001
    126  CD2       22.1020   11.8620   15.3650 C.3    83  LEU83       0.0001
    127  N         25.1380   15.2630   13.8720 N.am   84  GLU84      -0.1966
    128  CA        25.6090   16.6420   13.9870 C.3    84  GLU84       0.1733
    129  C         25.8370   16.9630   15.4550 C.2    84  GLU84       0.2616
    130  O         24.9890   16.6580   16.2940 O.2    84  GLU84      -0.2715
    131  CB        24.5570   17.5840   13.4270 C.3    84  GLU84       0.0429
    132  CG        24.9080   19.0490   13.5040 C.3    84  GLU84       0.1163
    133  CD        23.7740   19.9270   13.0200 C.2    84  GLU84       0.3649
    134  OE1       22.7870   19.3930   12.4530 O.co2  84  GLU84      -0.2457
    135  OE2       23.8630   21.1510   13.2110 O.co2  84  GLU84      -0.2457
    136  N         26.9900   17.5430   15.7670 N.am   85  TYR85      -0.1960
    137  CA        27.3040   17.9070   17.1450 C.3    85  TYR85       0.1771
    138  C         26.6880   19.2630   17.4580 C.2    85  TYR85       0.2619
    139  O         26.8010   20.1900   16.6530 O.2    85  TYR85      -0.2715
    140  CB        28.8270   17.9540   17.3680 C.3    85  TYR85       0.0574
    141  CG        29.2510   18.6160   18.6710 C.ar   85  TYR85      -0.0198
    142  CD1       30.0330   19.7630   18.6720 C.ar   85  TYR85      -0.0009
    143  CD2       28.8610   18.0940   19.8990 C.ar   85  TYR85      -0.0009
    144  CE1       30.4160   20.3680   19.8630 C.ar   85  TYR85       0.0417
    145  CE2       29.2370   18.6910   21.0930 C.ar   85  TYR85       0.0417
    146  CZ        30.0100   19.8270   21.0750 C.ar   85  TYR85       0.1957
    147  OH        30.3700   20.4140   22.2900 O.3    85  TYR85      -0.2866
    148  N         26.0560   19.3790   18.6230 N.am   86  ALA86      -0.1977
    149  CA        25.4970   20.6700   19.0690 C.3    86  ALA86       0.1597
    150  C         26.3540   21.2710   20.1690 C.2    86  ALA86       0.2287
    151  O         26.2500   20.8610   21.3240 O.2    86  ALA86      -0.2864
    152  CB        24.0530   20.5060   19.5330 C.3    86  ALA86       0.0319
    153  N         24.9550   22.6230   23.7580 N.3    89  GLY89      -0.1210
    154  CA        24.3070   21.7020   24.6870 C.3    89  GLY89       0.1956
    155  C         22.7950   21.6570   24.5790 C.2    89  GLY89       0.2612
    156  O         22.2060   22.1600   23.6130 O.2    89  GLY89      -0.2717
    157  N         22.1690   21.0480   25.5780 N.am   90  THR90      -0.1952
    158  CA        20.7140   20.8870   25.5980 C.3    90  THR90       0.1897
    159  C         19.9940   22.1150   26.1420 C.2    90  THR90       0.2313
    160  O         20.5240   22.8480   26.9920 O.2    90  THR90      -0.2863
    161  CB        20.2920   19.6620   26.4460 C.3    90  THR90       0.1794
    162  OG1       20.5150   19.9390   27.8360 O.3    90  THR90      -0.2208
    163  CG2       21.0940   18.4150   26.0400 C.3    90  THR90       0.0378
    164  N         15.1440   17.9030   27.1920 N.3   133  GLU133     -0.1231
    165  CA        16.3570   17.1000   27.0320 C.3   133  GLU133      0.1699
    166  C         16.5790   16.5820   25.5980 C.2   133  GLU133      0.2592
    167  O         17.6510   16.0710   25.2880 O.2   133  GLU133     -0.2718
    168  CB        16.5020   16.0150   28.1160 C.3   133  GLU133      0.0402
    169  CG        15.2360   15.3040   28.6030 C.3   133  GLU133      0.1161
    170  CD        14.3560   16.1410   29.5470 C.2   133  GLU133      0.3649
    171  OE1       14.2550   15.8100   30.7470 O.co2 133  GLU133     -0.2457
    172  OE2       13.7480   17.1230   29.0830 O.co2 133  GLU133     -0.2457
    173  N         15.5910   16.7710   24.7190 N.am  134  ASN134     -0.1974
    174  CA        15.7430   16.4550   23.2950 C.3   134  ASN134      0.1688
    175  C         15.7550   17.6980   22.4150 C.2   134  ASN134      0.2292
    176  O         15.4920   17.6270   21.2190 O.2   134  ASN134     -0.2864
    177  CB        14.6470   15.4970   22.8050 C.3   134  ASN134      0.1181
    178  CG        14.6630   14.1460   23.5240 C.2   134  ASN134      0.2629
    179  OD1       13.6040   13.5670   23.7860 O.2   134  ASN134     -0.2716
    180  ND2       15.8580   13.6400   23.8450 N.am  134  ASN134     -0.0877
    181  N         18.3600   20.8480   21.3460 N.3   136  LEU136     -0.1245
    182  CA        19.7890   21.1110   21.3600 C.3   136  LEU136      0.1561
    183  C         20.0910   22.4810   20.7930 C.2   136  LEU136      0.2260
    184  O         19.2660   23.0540   20.0660 O.2   136  LEU136     -0.2867
    185  CB        20.5250   20.0290   20.5660 C.3   136  LEU136      0.0270
    186  CG        20.4590   18.6150   21.1670 C.3   136  LEU136      0.0019
    187  CD1       21.1830   17.6460   20.3030 C.3   136  LEU136      0.0001
    188  CD2       21.0470   18.5630   22.5660 C.3   136  LEU136      0.0001
    189  N         16.1250   16.9040   18.3550 N.3   146  ALA146     -0.1231
    190  CA        16.8460   15.6410   18.2820 C.3   146  ALA146      0.1694
    191  C         15.9760   14.4730   18.7290 C.2   146  ALA146      0.2592
    192  O         14.9170   14.6690   19.3200 O.2   146  ALA146     -0.2718
    193  CB        18.0950   15.7220   19.1490 C.3   146  ALA146      0.0304
    194  N         16.4390   13.2600   18.4360 N.am  147  ASP147     -0.1974
    195  CA        15.8550   12.0210   18.9610 C.3   147  ASP147      0.1709
    196  C         14.5160   11.6510   18.3250 C.2   147  ASP147      0.2293
    197  O         13.4480   11.8580   18.9200 O.2   147  ASP147     -0.2864
    198  CB        15.7550   12.0730   20.4970 C.3   147  ASP147      0.1436
    199  CG        15.3360   10.7490   21.1060 C.2   147  ASP147      0.3671
    200  OD1       14.8110   10.7820   22.2390 O.co2 147  ASP147     -0.2456
    201  OD2       15.5190    9.6890   20.4610 O.co2 147  ASP147     -0.2456
    202  N         13.3640    8.7080   17.7810 N.3   149  GLY149     -0.1210
    203  CA        13.1440    7.3000   18.1300 C.3   149  GLY149      0.1956
    204  C         11.6820    6.9230   18.2940 C.2   149  GLY149      0.2611
    205  O         11.2690    5.8260   17.9130 O.2   149  GLY149     -0.2717
    206  N         10.9000    7.8380   18.8590 N.am  150  TRP150     -0.1976
    207  CA         9.4870    7.5860   19.1200 C.3   150  TRP150      0.1640
    208  C          8.6260    8.2420   18.0350 C.2   150  TRP150      0.2290
    209  O          7.4100    8.3960   18.1930 O.2   150  TRP150     -0.2864
    210  CB         9.1100    8.0320   20.5460 C.3   150  TRP150      0.0576
    211  CG        10.1310    7.5800   21.5740 C.ar  150  TRP150      0.0006
    212  CD1       11.2100    8.2910   22.0190 C.ar  150  TRP150      0.0946
    213  CD2       10.1900    6.3080   22.2410 C.ar  150  TRP150      0.0152
    214  NE1       11.9270    7.5510   22.9310 N.ar  150  TRP150     -0.2442
    215  CE2       11.3260    6.3300   23.0850 C.ar  150  TRP150      0.0810
    216  CE3        9.3890    5.1590   22.2160 C.ar  150  TRP150      0.0012
    217  CZ2       11.6850    5.2440   23.9000 C.ar  150  TRP150      0.0191
    218  CZ3        9.7430    4.0770   23.0290 C.ar  150  TRP150      0.0001
    219  CH2       10.8840    4.1300   23.8580 C.ar  150  TRP150      0.0015
@<TRIPOS>BOND
     1    97    96    2
     2    96    95    1
     3    95    94    1
     4    95    98    1
     5    98    99    1
     6    88    87    2
     7   101   100    2
     8    99   100    1
     9    87    86    1
    10   100   102   am
    11   134   133   ar
    12    85    86    1
    13    86    89    1
    14   133   135   ar
    15   133   132    1
    16   106   105    2
    17   105   104    1
    18   131   132    1
    19   131   128    1
    20    80    79    2
    21   127   128    1
    22   127   121   am
    23   128   129    1
    24    79    78    1
    25   103   104    1
    26   104   107    1
    27   121   120    1
    28   121   122    2
    29    89    90    1
    30   119   120    1
    31   120   123    1
    32    90    91    1
    33    71    70    2
    34   118   116    1
    35   113   112    1
    36   113   114    2
    37   112   115    1
    38   112   111    1
    39   126   124    1
    40   129   136   am
    41   129   130    2
    42    78    77    1
    43    78    81    1
    44    70    77   am
    45    70    69    1
    46   107   108    1
    47   136   137    1
    48   123   124    1
    49    91    93   ar
    50    91    92   ar
    51   115   116    1
    52    68    69    1
    53    82    81    1
    54    82    84    1
    55    82    83    1
    56   108   109    1
    57   108   110    1
    58    69    72    1
    59   124   125    1
    60   116   117    1
    61    34    33    2
    62   139   138    2
    63    31    32    1
    64   137   140    1
    65   137   138    1
    66   140   141    1
    67   138   148   am
    68    33    32    1
    69    72    73    1
    70   202   203    1
    71   205   204    2
    72    32    35    1
    73    73    74    1
    74   208   209    2
    75   208   207    1
    76   203   204    1
    77   190   189    1
    78   190   191    1
    79   190   193    1
    80   204   206   am
    81   196   197    2
    82   196   195    1
    83   194   191   am
    84   194   195    1
    85    64    63    2
    86   148   149    1
    87   141   142   ar
    88   141   143   ar
    89   142   144   ar
    90   191   192    2
    91   206   207    1
    92   195   198    1
    93    39    38    2
    94    52    50    1
    95   149   152    1
    96   149   150    1
    97    36    37    1
    98   207   210    1
    99    63    62    1
   100    76    74   am
   101    74    75    2
   102    59    58    1
   103   144   146   ar
   104   143   145   ar
   105    40    37    1
   106    40    41    1
   107    38    37    1
   108   184   183    2
   109   150   151    2
   110   187   186    1
   111    50    49    1
   112    50    51    1
   113    62    61    1
   114    62    65    1
   115   201   199   ar
   116   198   199    1
   117   210   211    1
   118   185   186    1
   119   185   182    1
   120    49    46    1
   121    48    47    2
   122    41    42    1
   123   183   182    1
   124    45    46    1
   125   146   145   ar
   126   146   147    1
   127   199   200   ar
   128   186   188    1
   129    58    57    1
   130    58    60    1
   131   176   175    2
   132    65    67    1
   133    65    66    1
   134   181   182    1
   135    57    54    1
   136   211   212   ar
   137   211   213   ar
   138    46    47    1
   139    29    28    1
   140   212   214   ar
   141    42    43    1
   142   216   213   ar
   143   216   218   ar
   144   213   215   ar
   145     7     6    1
   146   175   174    1
   147    56    55    2
   148    55    54    1
   149    44    43    1
   150    54    53    1
   151   177   174    1
   152   177   178    1
   153   214   215   ar
   154   218   219   ar
   155   215   217   ar
   156   174   173    1
   157    28    25    1
   158    28    30    1
   159   178   179    2
   160   178   180   am
   161    25    26    1
   162    25    24    1
   163   156   155    2
   164   153   154    1
   165    26    27    2
   166     6     8    1
   167     6     5    1
   168   219   217   ar
   169   155   154    1
   170   155   157   am
   171     5     2    1
   172   173   166   am
   173    20    22   ar
   174    20    18   ar
   175    17    18    1
   176    17    14    1
   177    16    15    2
   178    22    23   ar
   179    18    19   ar
   180   167   166    2
   181    15    14    1
   182   157   158    1
   183   166   165    1
   184   158   159    1
   185   158   161    1
   186    23    21   ar
   187    19    21   ar
   188    14    13    1
   189   163   161    1
   190     2     1    1
   191     2     3    1
   192   159   160    2
   193   161   162    1
   194     3     9   am
   195     3     4    2
   196   165   164    1
   197   165   168    1
   198     9    10    1
   199    12    11    2
   200    10    11    1
   201   168   169    1
   202   169   170    1
   203   172   170   ar
   204   170   171   ar
