@<TRIPOS>MOLECULE
tmp/3d2mA01.pdb
 132 124 0 0 0
SMALL
GASTEIGER

@<TRIPOS>ATOM
      1  N         44.7860   -5.4640    9.6990 N.3   300  ILE300     -0.1231
      2  CA        43.6670   -4.9160   10.4230 C.3   300  ILE300      0.1692
      3  C         42.4780   -4.8660    9.4580 C.2   300  ILE300      0.2592
      4  O         41.3440   -5.1560    9.8330 O.2   300  ILE300     -0.2718
      5  CB        44.0250   -3.4910   10.9100 C.3   300  ILE300      0.0266
      6  CG1       45.2120   -3.5470   11.8680 C.3   300  ILE300      0.0019
      7  CG2       42.8160   -2.7860   11.5600 C.3   300  ILE300      0.0020
      8  CD1       45.9490   -2.2060   12.0270 C.3   300  ILE300      0.0001
      9  N         42.7450   -4.4600    8.2200 N.am  301  LEU301     -0.1966
     10  CA        41.7160   -4.4260    7.2000 C.3   301  LEU301      0.1728
     11  C         42.0150   -5.4920    6.1680 C.2   301  LEU301      0.2616
     12  O         43.1630   -5.6320    5.7470 O.2   301  LEU301     -0.2715
     13  CB        41.5920   -3.0390    6.5490 C.3   301  LEU301      0.0311
     14  CG        41.0160   -1.8780    7.3660 C.3   301  LEU301      0.0022
     15  CD1       40.6080   -0.7510    6.4130 C.3   301  LEU301      0.0001
     16  CD2       39.8290   -2.2680    8.2270 C.3   301  LEU301      0.0001
     17  N         40.9800   -6.2560    5.8040 N.am  302  LEU302     -0.1977
     18  CA        41.0320   -7.2190    4.7020 C.3   302  LEU302      0.1596
     19  C         41.4950   -6.5130    3.4810 C.2   302  LEU302      0.2287
     20  O         41.1340   -5.3460    3.2500 O.2   302  LEU302     -0.2864
     21  CB        39.6580   -7.8350    4.3850 C.3   302  LEU302      0.0297
     22  CG        39.0940   -8.8210    5.3880 C.3   302  LEU302      0.0022
     23  CD1       37.6910   -9.2640    4.9520 C.3   302  LEU302      0.0001
     24  CD2       40.0580   -9.9880    5.5220 C.3   302  LEU302      0.0001
     25  N         41.5930   -5.3360    0.0250 N.3   304  ARG304     -0.1245
     26  CA        40.6830   -5.0450   -1.0800 C.3   304  ARG304      0.1563
     27  C         41.3650   -5.1320   -2.4760 C.2   304  ARG304      0.2260
     28  O         41.9870   -6.1890   -2.8200 O.2   304  ARG304     -0.2867
     29  CB        39.8220   -3.7940   -0.8480 C.3   304  ARG304      0.0307
     30  CG        38.4930   -4.1370   -0.2730 C.3   304  ARG304      0.0489
     31  CD        38.5260   -4.0900    1.2440 C.3   304  ARG304      0.2205
     32  NE        37.2650   -4.4680    1.8960 N.pl3 304  ARG304     -0.0865
     33  CZ        37.0580   -4.4240    3.2210 C.cat 304  ARG304      0.5346
     34  NH1       38.0230   -4.0110    4.0480 N.pl3 304  ARG304      0.1354
     35  NH2       35.8850   -4.8040    3.7220 N.pl3 304  ARG304      0.1354
     36  N         26.7220   -6.0290    7.4870 N.3   341  GLU341     -0.1231
     37  CA        28.0170   -5.9780    8.1090 C.3   341  GLU341      0.1699
     38  C         28.6540   -4.6200    7.8310 C.2   341  GLU341      0.2592
     39  O         28.6230   -4.1080    6.6970 O.2   341  GLU341     -0.2718
     40  CB        28.8820   -7.1340    7.6330 C.3   341  GLU341      0.0402
     41  CG        29.9250   -7.5920    8.6050 C.3   341  GLU341      0.1161
     42  CD        31.2880   -7.5560    7.9760 C.2   341  GLU341      0.3649
     43  OE1       31.6680   -6.4560    7.5530 O.co2 341  GLU341     -0.2457
     44  OE2       31.9840   -8.5860    7.8770 O.co2 341  GLU341     -0.2457
     45  N         29.1630   -4.0060    8.8950 N.am  342  ILE342     -0.1966
     46  CA        29.9410   -2.8190    8.7510 C.3   342  ILE342      0.1727
     47  C         31.3640   -3.2760    8.4360 C.2   342  ILE342      0.2616
     48  O         32.0250   -3.9950    9.2170 O.2   342  ILE342     -0.2715
     49  CB        29.8320   -1.8120    9.9780 C.3   342  ILE342      0.0290
     50  CG1       30.7460   -0.5960    9.7400 C.3   342  ILE342      0.0022
     51  CG2       29.9960   -2.5150   11.3370 C.3   342  ILE342      0.0023
     52  CD1       30.5420    0.5900   10.7670 C.3   342  ILE342      0.0001
     53  N         31.8040   -2.8830    7.2470 N.am  343  ALA343     -0.1963
     54  CA        33.0890   -3.3220    6.7240 C.3   343  ALA343      0.1728
     55  C         33.9570   -2.1070    6.4360 C.2   343  ALA343      0.2616
     56  O         33.4380   -1.0300    6.0820 O.2   343  ALA343     -0.2715
     57  CB        32.8600   -4.1480    5.4510 C.3   343  ALA343      0.0334
     58  N         35.2720   -2.2850    6.5840 N.am  344  CYS344     -0.1954
     59  CA        36.2660   -1.3470    6.0400 C.3   344  CYS344      0.1843
     60  C         36.2010    0.0310    6.7400 C.2   344  CYS344      0.2625
     61  O         36.3670    1.0690    6.1020 O.2   344  CYS344     -0.2714
     62  CB        36.0390   -1.1910    4.5380 C.3   344  CYS344      0.0997
     63  SG        37.3950   -0.5470    3.5520 S.3   344  CYS344     -0.0797
     64  N         35.9310    0.0340    8.0380 N.am  345  LEU345     -0.1977
     65  CA        35.8030    1.2780    8.8290 C.3   345  LEU345      0.1596
     66  C         37.1940    1.7940    9.1200 C.2   345  LEU345      0.2287
     67  O         38.0700    1.0470    9.6090 O.2   345  LEU345     -0.2864
     68  CB        35.0560    1.0450   10.1480 C.3   345  LEU345      0.0297
     69  CG        34.9030    2.2060   11.1630 C.3   345  LEU345      0.0022
     70  CD1       34.0700    3.3860   10.6750 C.3   345  LEU345      0.0001
     71  CD2       34.3010    1.7200   12.4530 C.3   345  LEU345      0.0001
     72  N         33.4050   -7.5100   12.4580 N.3   379  LEU379     -0.1231
     73  CA        34.4410   -8.4870   12.6470 C.3   379  LEU379      0.1693
     74  C         35.7830   -7.7420   12.6640 C.2   379  LEU379      0.2592
     75  O         36.1320   -6.9500   11.7510 O.2   379  LEU379     -0.2718
     76  CB        34.3860   -9.5480   11.5210 C.3   379  LEU379      0.0284
     77  CG        33.2210  -10.5550   11.6290 C.3   379  LEU379      0.0019
     78  CD1       32.0010  -10.1120   10.8160 C.3   379  LEU379      0.0001
     79  CD2       33.6420  -11.9620   11.2380 C.3   379  LEU379      0.0001
     80  N         36.5530   -8.0250   13.6930 N.am  380  SER380     -0.1952
     81  CA        37.7370   -7.2660   13.9200 C.3   380  SER380      0.1924
     82  C         38.7250   -8.1240   14.6760 C.2   380  SER380      0.2314
     83  O         38.3950   -8.8310   15.6550 O.2   380  SER380     -0.2863
     84  CB        37.4460   -5.9780   14.7280 C.3   380  SER380      0.2116
     85  OG        38.4090   -4.9930   14.3900 O.3   380  SER380     -0.2180
     86  N         33.7340   -1.4620   19.0780 N.3   387  PHE387     -0.1241
     87  CA        32.3850   -1.9250   18.8000 C.3   387  PHE387      0.1605
     88  C         31.5940   -2.3290   20.0350 C.2   387  PHE387      0.2264
     89  O         30.4380   -1.9050   20.1980 O.2   387  PHE387     -0.2867
     90  CB        32.4170   -3.0710   17.7750 C.3   387  PHE387      0.0534
     91  CG        32.9060   -2.6260   16.4340 C.ar  387  PHE387     -0.0203
     92  CD1       34.2070   -2.9050   16.0360 C.ar  387  PHE387     -0.0042
     93  CD2       32.0920   -1.8270   15.6360 C.ar  387  PHE387     -0.0042
     94  CE1       34.7070   -2.4400   14.8010 C.ar  387  PHE387     -0.0003
     95  CE2       32.5450   -1.3560   14.4060 C.ar  387  PHE387     -0.0003
     96  CZ        33.8660   -1.6650   13.9760 C.ar  387  PHE387     -0.0000
     97  N         29.3350  -15.6880    5.0220 N.3   404  ARG404     -0.1245
     98  CA        30.3660  -14.9990    5.8390 C.3   404  ARG404      0.1563
     99  C         31.0910  -16.0030    6.7640 C.2   404  ARG404      0.2260
    100  O         32.3160  -16.0150    6.8760 O.2   404  ARG404     -0.2867
    101  CB        29.7540  -13.8390    6.6390 C.3   404  ARG404      0.0307
    102  CG        30.7710  -12.9140    7.3010 C.3   404  ARG404      0.0489
    103  CD        31.7150  -12.2720    6.2410 C.3   404  ARG404      0.2205
    104  NE        32.5730  -11.2120    6.7940 N.pl3 404  ARG404     -0.0865
    105  CZ        33.7860  -11.4180    7.3110 C.cat 404  ARG404      0.5346
    106  NH1       34.3120  -12.6590    7.3680 N.pl3 404  ARG404      0.1354
    107  NH2       34.4590  -10.3810    7.7970 N.pl3 404  ARG404      0.1354
    108  N         39.6610  -17.9510    6.1240 N.3   411  ASN411     -0.1240
    109  CA        40.5770  -16.8270    6.5040 C.3   411  ASN411      0.1653
    110  C         41.7940  -17.1180    7.3490 C.2   411  ASN411      0.2266
    111  O         42.8300  -16.5150    7.1510 O.2   411  ASN411     -0.2867
    112  CB        39.8230  -15.7950    7.3850 C.3   411  ASN411      0.1155
    113  CG        39.3600  -14.6090    6.6130 C.2   411  ASN411      0.2627
    114  OD1       38.5830  -13.8130    7.1200 O.2   411  ASN411     -0.2716
    115  ND2       39.8080  -14.5020    5.3520 N.am  411  ASN411     -0.0877
    116  N         42.0830  -15.8370   10.1370 N.3   413  ARG413     -0.1245
    117  CA        42.2510  -14.5860   10.9150 C.3   413  ARG413      0.1563
    118  C         41.6620  -14.6520   12.3230 C.2   413  ARG413      0.2260
    119  O         42.0760  -13.8960   13.1800 O.2   413  ARG413     -0.2867
    120  CB        41.6500  -13.3590   10.1950 C.3   413  ARG413      0.0307
    121  CG        42.2560  -12.9730    8.8550 C.3   413  ARG413      0.0489
    122  CD        41.4580  -11.8540    8.1950 C.3   413  ARG413      0.2205
    123  NE        41.2640  -10.7110    9.0980 N.pl3 413  ARG413     -0.0865
    124  CZ        41.8090   -9.4930    8.9600 C.cat 413  ARG413      0.5346
    125  NH1       42.6320   -9.1800    7.9400 N.pl3 413  ARG413      0.1354
    126  NH2       41.5400   -8.5700    9.8680 N.pl3 413  ARG413      0.1354
    127  N         39.0510  -13.4500   13.6580 N.3   415  SER415     -0.1217
    128  CA        38.6330  -12.1320   14.0980 C.3   415  SER415      0.1889
    129  C         37.5280  -12.2760   15.1450 C.2   415  SER415      0.2288
    130  O         36.8370  -13.2680   15.1650 O.2   415  SER415     -0.2866
    131  CB        38.1220  -11.3460   12.8940 C.3   415  SER415      0.2089
    132  OG        38.7900  -11.7520   11.7000 O.3   415  SER415     -0.2183
@<TRIPOS>BOND
     1    28    27    2
     2    27    26    1
     3    26    29    1
     4    26    25    1
     5    29    30    1
     6    30    31    1
     7    31    32    1
     8    32    33    2
     9    33    35    1
    10    33    34    1
    11    20    19    2
    12    19    18    1
    13    63    62    1
    14    21    18    1
    15    21    22    1
    16    62    59    1
    17    18    17    1
    18    23    22    1
    19    97    98    1
    20   115   113   am
    21    22    24    1
    22    57    54    1
    23    12    11    2
    24    17    11   am
    25    98   101    1
    26    98    99    1
    27    59    58    1
    28    59    60    1
    29    56    55    2
    30    61    60    2
    31   108   109    1
    32    11    10    1
    33   103   104    1
    34   103   102    1
    35    15    14    1
    36    55    58   am
    37    55    54    1
    38   109   110    1
    39   109   112    1
    40    13    10    1
    41    13    14    1
    42   113   114    2
    43   113   112    1
    44   101   102    1
    45    39    38    2
    46    54    53    1
    47    60    64   am
    48    99   100    2
    49   104   105    2
    50   111   110    2
    51    10     9    1
    52    53    47   am
    53   105   106    1
    54   105   107    1
    55    14    16    1
    56    36    37    1
    57    43    42   ar
    58    40    37    1
    59    40    41    1
    60    38    37    1
    61    38    45   am
    62    44    42   ar
    63   125   124    1
    64    42    41    1
    65    64    65    1
    66   122   121    1
    67   122   123    1
    68     9     3   am
    69    47    46    1
    70    47    48    2
    71    46    45    1
    72    46    49    1
    73    65    66    1
    74    65    68    1
    75   121   120    1
    76   124   123    2
    77   124   126    1
    78    66    67    2
    79     3     4    2
    80     3     2    1
    81     1     2    1
    82    50    49    1
    83    50    52    1
    84    49    51    1
    85   116   117    1
    86    68    69    1
    87   120   117    1
    88     2     5    1
    89    70    69    1
    90    78    77    1
    91     5     7    1
    92     5     6    1
    93   117   118    1
    94    69    71    1
    95    79    77    1
    96    76    77    1
    97    76    73    1
    98   132   131    1
    99    75    74    2
   100     6     8    1
   101   118   119    2
   102    72    73    1
   103    73    74    1
   104    74    80   am
   105   131   128    1
   106   127   128    1
   107    80    81    1
   108    81    82    1
   109    81    84    1
   110    96    95   ar
   111    96    94   ar
   112   128   129    1
   113    85    84    1
   114    95    93   ar
   115    82    83    2
   116    94    92   ar
   117   129   130    2
   118    93    91   ar
   119    92    91   ar
   120    91    90    1
   121    90    87    1
   122    87    86    1
   123    87    88    1
   124    88    89    2
