@<TRIPOS>MOLECULE
tmp/3d2pB01.pdb
 138 129 0 0 0
SMALL
GASTEIGER

@<TRIPOS>ATOM
      1  N        -58.6260    1.0390   54.6110 N.3    13  TYR13      -0.1241
      2  CA       -57.2160    1.3780   54.9250 C.3    13  TYR13       0.1605
      3  C        -56.6130    2.3120   53.9190 C.2    13  TYR13       0.2264
      4  O        -55.7480    3.1090   54.2780 O.2    13  TYR13      -0.2867
      5  CB       -56.3120    0.1630   55.0850 C.3    13  TYR13       0.0534
      6  CG       -56.5390   -0.6150   56.3730 C.ar   13  TYR13      -0.0201
      7  CD1      -56.9840   -1.9280   56.3480 C.ar   13  TYR13      -0.0009
      8  CD2      -56.2980   -0.0340   57.6140 C.ar   13  TYR13      -0.0009
      9  CE1      -57.1640   -2.6310   57.5170 C.ar   13  TYR13       0.0417
     10  CE2      -56.4720   -0.7390   58.7770 C.ar   13  TYR13       0.0417
     11  CZ       -56.9220   -2.0260   58.7270 C.ar   13  TYR13       0.1957
     12  OH       -57.1050   -2.7140   59.8980 O.3    13  TYR13      -0.2866
     13  N        -54.8170    5.5170   55.0410 N.3    17  MET17      -0.1245
     14  CA       -53.3990    5.6990   54.8300 C.3    17  MET17       0.1570
     15  C        -53.0770    6.9730   54.0540 C.2    17  MET17       0.2261
     16  O        -52.0680    7.6060   54.3320 O.2    17  MET17      -0.2867
     17  CB       -52.7760    4.5180   54.1040 C.3    17  MET17       0.0387
     18  CG       -52.8110    3.2350   54.8240 C.3    17  MET17       0.0595
     19  SD       -51.7700    3.2330   56.2460 S.3    17  MET17      -0.1393
     20  CE       -50.1960    3.7490   55.5650 C.3    17  MET17       0.0692
     21  N        -46.8530    5.9630   61.3430 N.3   197  LYS197     -0.1245
     22  CA       -46.2970    4.6090   61.3260 C.3   197  LYS197      0.1561
     23  C        -44.7850    4.6100   61.1880 C.2   197  LYS197      0.2260
     24  O        -44.2170    5.4070   60.4540 O.2   197  LYS197     -0.2867
     25  CB       -46.8580    3.7880   60.1960 C.3   197  LYS197      0.0271
     26  CG       -48.2630    3.4280   60.3560 C.3   197  LYS197      0.0035
     27  CD       -48.6470    2.3560   59.3450 C.3   197  LYS197      0.0206
     28  CE       -50.1670    2.2030   59.3550 C.3   197  LYS197      0.1093
     29  NZ       -50.5640    1.6740   60.7040 N.3   197  LYS197     -0.1314
     30  N        -47.0720  -10.5690   67.0370 N.3   216  GLU216     -0.1231
     31  CA       -48.2650  -10.1910   66.2640 C.3   216  GLU216      0.1699
     32  C        -48.7630   -8.8070   66.6330 C.2   216  GLU216      0.2592
     33  O        -48.9050   -7.9250   65.7700 O.2   216  GLU216     -0.2718
     34  CB       -49.4030  -11.2330   66.3800 C.3   216  GLU216      0.0402
     35  CG       -50.4100  -11.2110   65.2440 C.3   216  GLU216      0.1161
     36  CD       -50.9570  -12.5810   64.8460 C.2   216  GLU216      0.3649
     37  OE1      -50.1920  -13.5550   64.7800 O.co2 216  GLU216     -0.2457
     38  OE2      -52.1640  -12.6820   64.5530 O.co2 216  GLU216     -0.2457
     39  N        -49.0180   -8.6230   67.9170 N.am  217  THR217     -0.1953
     40  CA       -49.3500   -7.3120   68.4670 C.3   217  THR217      0.1897
     41  C        -48.6460   -7.2340   69.8110 C.2   217  THR217      0.2313
     42  O        -48.5490   -8.2110   70.5310 O.2   217  THR217     -0.2863
     43  CB       -50.8950   -7.1320   68.6160 C.3   217  THR217      0.1794
     44  OG1      -51.3700   -7.9030   69.7110 O.3   217  THR217     -0.2208
     45  CG2      -51.6330   -7.6010   67.3770 C.3   217  THR217      0.0378
     46  N        -47.9690    3.7440   65.6800 N.3   251  ARG251     -0.1245
     47  CA       -47.7480    2.3140   65.5830 C.3   251  ARG251      0.1563
     48  C        -46.3580    2.0710   65.0920 C.2   251  ARG251      0.2260
     49  O        -45.8620    2.8020   64.2120 O.2   251  ARG251     -0.2867
     50  CB       -48.6800    1.7010   64.5470 C.3   251  ARG251      0.0307
     51  CG       -50.1010    1.4480   65.0050 C.3   251  ARG251      0.0489
     52  CD       -50.1670    0.4620   66.1300 C.3   251  ARG251      0.2205
     53  NE       -51.5560    0.3220   66.5050 N.pl3 251  ARG251     -0.0865
     54  CZ       -52.2020    1.2070   67.2490 C.cat 251  ARG251      0.5346
     55  NH1      -51.5970    2.2840   67.7190 N.pl3 251  ARG251      0.1354
     56  NH2      -53.4610    1.0110   67.5230 N.pl3 251  ARG251      0.1354
     57  N        -44.3630   -1.0600   63.2870 N.3   253  GLN253     -0.1245
     58  CA       -44.5320   -2.3570   62.6740 C.3   253  GLN253      0.1566
     59  C        -43.2390   -2.9830   62.2020 C.2   253  GLN253      0.2260
     60  O        -42.3810   -2.3030   61.6210 O.2   253  GLN253     -0.2867
     61  CB       -45.5590   -2.2480   61.5530 C.3   253  GLN253      0.0367
     62  CG       -46.9290   -2.1510   62.1500 C.3   253  GLN253      0.0905
     63  CD       -47.9040   -1.3750   61.3530 C.2   253  GLN253      0.2608
     64  OE1      -47.9010   -0.1260   61.3840 O.2   253  GLN253     -0.2717
     65  NE2      -48.8220   -2.0960   60.6760 N.am  253  GLN253     -0.0878
     66  N        -49.4720   -6.2720   55.5620 N.3   266  GLU266     -0.1231
     67  CA       -49.4120   -5.5850   56.8280 C.3   266  GLU266      0.1699
     68  C        -50.3010   -4.3390   56.8400 C.2   266  GLU266      0.2592
     69  O        -51.0950   -4.1400   57.7840 O.2   266  GLU266     -0.2718
     70  CB       -47.9620   -5.1760   57.1270 C.3   266  GLU266      0.0402
     71  CG       -47.7740   -4.4180   58.4480 C.3   266  GLU266      0.1161
     72  CD       -48.0770   -5.3040   59.6680 C.2   266  GLU266      0.3649
     73  OE1      -48.3950   -4.7650   60.7710 O.co2 266  GLU266     -0.2457
     74  OE2      -48.0250   -6.5410   59.5100 O.co2 266  GLU266     -0.2457
     75  N        -50.1600   -3.4910   55.8150 N.am  267  LEU267     -0.1980
     76  CA       -50.8420   -2.1940   55.8060 C.3   267  LEU267      0.1596
     77  C        -52.3190   -2.2540   55.4140 C.2   267  LEU267      0.2287
     78  O        -53.0940   -1.3840   55.8220 O.2   267  LEU267     -0.2864
     79  CB       -50.1160   -1.1540   54.9190 C.3   267  LEU267      0.0297
     80  CG       -48.6440   -0.8440   55.2210 C.3   267  LEU267      0.0022
     81  CD1      -48.1150    0.0640   54.1870 C.3   267  LEU267      0.0001
     82  CD2      -48.4050   -0.2510   56.5960 C.3   267  LEU267      0.0001
     83  N        -54.5770   -5.1840   55.5450 N.3   269  THR269     -0.1203
     84  CA       -55.4800   -6.1130   56.2040 C.3   269  THR269      0.1994
     85  C        -55.5350   -5.8200   57.6900 C.2   269  THR269      0.2618
     86  O        -54.6450   -5.1480   58.2350 O.2   269  THR269     -0.2717
     87  CB       -55.0830   -7.5850   55.9660 C.3   269  THR269      0.1784
     88  OG1      -53.9380   -7.9000   56.7440 O.3   269  THR269     -0.2211
     89  CG2      -54.7630   -7.8260   54.5140 C.3   269  THR269      0.0376
     90  N        -56.5890   -6.2960   58.3420 N.am  270  ARG270     -0.1965
     91  CA       -56.7450   -6.1150   59.7800 C.3   270  ARG270      0.1729
     92  C        -55.7550   -6.9440   60.6020 C.2   270  ARG270      0.2616
     93  O        -55.2420   -6.4490   61.5990 O.2   270  ARG270     -0.2715
     94  CB       -58.1760   -6.3730   60.2020 C.3   270  ARG270      0.0348
     95  CG       -59.1450   -5.3840   59.6130 C.3   270  ARG270      0.0492
     96  CD       -60.5620   -5.5540   60.1470 C.3   270  ARG270      0.2205
     97  NE       -61.2080   -6.7720   59.6900 N.pl3 270  ARG270     -0.0865
     98  CZ       -61.8570   -6.9190   58.5280 C.cat 270  ARG270      0.5346
     99  NH1      -61.9430   -5.9150   57.6570 N.pl3 270  ARG270      0.1354
    100  NH2      -62.4190   -8.0810   58.2220 N.pl3 270  ARG270      0.1354
    101  N        -55.4460   -8.1710   60.1940 N.am  271  ASN271     -0.1958
    102  CA       -54.4280   -8.9130   60.9290 C.3   271  ASN271      0.1819
    103  C        -52.9870   -8.5810   60.5830 C.2   271  ASN271      0.2622
    104  O        -52.1200   -8.7110   61.4500 O.2   271  ASN271     -0.2715
    105  CB       -54.6130  -10.4220   60.8380 C.3   271  ASN271      0.1195
    106  CG       -55.9720  -10.8800   61.3630 C.2   271  ASN271      0.2630
    107  OD1      -56.4080  -11.9810   61.0390 O.2   271  ASN271     -0.2716
    108  ND2      -56.6600  -10.0360   62.1560 N.am  271  ASN271     -0.0877
    109  N        -52.7050   -8.1940   59.3430 N.am  272  GLY272     -0.1940
    110  CA       -51.3170   -8.0380   58.9060 C.3   272  GLY272      0.2014
    111  C        -50.5760   -9.3640   58.8120 C.2   272  GLY272      0.2639
    112  O        -51.1870  -10.3940   58.8190 O.2   272  GLY272     -0.2714
    113  N        -49.2610   -9.3150   58.6570 N.am  273  ILE273     -0.1963
    114  CA       -48.3370  -10.4420   58.8840 C.3   273  ILE273      0.1727
    115  C        -47.4220   -9.6950   59.8140 C.2   273  ILE273      0.2616
    116  O        -47.6470   -8.5150   60.0440 O.2   273  ILE273     -0.2715
    117  CB       -47.5190  -10.8470   57.6090 C.3   273  ILE273      0.0290
    118  CG1      -47.6290   -9.8060   56.5150 C.3   273  ILE273      0.0022
    119  CG2      -48.0360  -12.1180   56.9730 C.3   273  ILE273      0.0023
    120  CD1      -47.0060   -8.5410   56.8400 C.3   273  ILE273      0.0001
    121  N        -46.3820  -10.2820   60.3590 N.am  274  GLY274     -0.1955
    122  CA       -45.5390   -9.4080   61.2100 C.3   274  GLY274      0.1869
    123  C        -46.1410   -8.9020   62.5410 C.2   274  GLY274      0.2309
    124  O        -47.2510   -9.2990   62.9730 O.2   274  GLY274     -0.2863
    125  N        -47.1470   -5.8520   65.1990 N.3   276  SER276     -0.1217
    126  CA       -47.5400   -4.4640   65.3650 C.3   276  SER276      0.1889
    127  C        -47.3420   -4.0500   66.8190 C.2   276  SER276      0.2288
    128  O        -47.6660   -4.8210   67.7200 O.2   276  SER276     -0.2866
    129  CB       -48.9690   -4.2190   64.9290 C.3   276  SER276      0.2089
    130  OG       -49.2310   -2.8240   65.0050 O.3   276  SER276     -0.2183
    131  N        -57.4540   -2.0430   67.9650 N.3   326  ASP326     -0.1239
    132  CA       -56.5670   -1.3760   66.9570 C.3   326  ASP326      0.1674
    133  C        -57.3850   -0.4260   66.1130 C.2   326  ASP326      0.2266
    134  O        -57.1640   -0.3100   64.9290 O.2   326  ASP326     -0.2867
    135  CB       -55.9340   -2.4570   66.0520 C.3   326  ASP326      0.1410
    136  CG       -54.6280   -2.0240   65.3470 C.2   326  ASP326      0.3668
    137  OD1      -54.1910   -2.8340   64.4830 O.co2 326  ASP326     -0.2456
    138  OD2      -54.0280   -0.9410   65.6210 O.co2 326  ASP326     -0.2456
@<TRIPOS>BOND
     1     3     4    2
     2     3     2    1
     3    15    16    2
     4    15    14    1
     5    17    18    1
     6    17    14    1
     7    81    80    1
     8    89    87    1
     9     1     2    1
    10    18    19    1
    11    14    13    1
    12    79    80    1
    13    79    76    1
    14     2     5    1
    15     5     6    1
    16    80    82    1
    17    77    76    1
    18    77    78    2
    19    83    84    1
    20    66    67    1
    21    20    19    1
    22    76    75    1
    23    75    68   am
    24    87    84    1
    25    87    88    1
    26    84    85    1
    27     7     6   ar
    28     7     9   ar
    29     6     8   ar
    30   118   120    1
    31   118   117    1
    32    67    68    1
    33    67    70    1
    34    68    69    2
    35   119   117    1
    36    70    71    1
    37     9    11   ar
    38   117   114    1
    39     8    10   ar
    40    99    98    1
    41    85    86    2
    42    85    90   am
    43   100    98    1
    44    90    91    1
    45    71    72    1
    46    98    97    2
    47   113   111   am
    48   113   114    1
    49    11    10   ar
    50    11    12    1
    51   111   112    2
    52   111   110    1
    53   114   115    1
    54   110   109    1
    55   109   103   am
    56    27    28    1
    57    27    26    1
    58    28    29    1
    59    74    72   ar
    60    95    96    1
    61    95    94    1
    62    72    73   ar
    63    97    96    1
    64    91    94    1
    65    91    92    1
    66   115   116    2
    67   115   121   am
    68   101    92   am
    69   101   102    1
    70    25    26    1
    71    25    22    1
    72   121   122    1
    73    24    23    2
    74   103   102    1
    75   103   104    2
    76    92    93    2
    77    65    63   am
    78   105   102    1
    79   105   106    1
    80   107   106    2
    81    23    22    1
    82   122   123    1
    83    22    21    1
    84    63    64    2
    85    63    62    1
    86   106   108   am
    87    61    62    1
    88    61    58    1
    89    60    59    2
    90    59    58    1
    91   123   124    2
    92    58    57    1
    93    49    48    2
    94   137   136   ar
    95    50    51    1
    96    50    47    1
    97    38    36   ar
    98    37    36   ar
    99    36    35    1
   100   129   130    1
   101   129   126    1
   102   134   133    2
   103    51    52    1
   104    48    47    1
   105   125   126    1
   106    35    34    1
   107   136   138   ar
   108   136   135    1
   109   126   127    1
   110    47    46    1
   111    33    32    2
   112   135   132    1
   113   133   132    1
   114    52    53    1
   115    31    34    1
   116    31    32    1
   117    31    30    1
   118    53    54    2
   119    32    39   am
   120   127   128    2
   121   132   131    1
   122    54    56    1
   123    54    55    1
   124    45    43    1
   125    39    40    1
   126    40    43    1
   127    40    41    1
   128    43    44    1
   129    41    42    2
