@<TRIPOS>MOLECULE
tmp/3d2rB00.pdb
 193 184 0 0 0
SMALL
GASTEIGER

@<TRIPOS>ATOM
      1  N         14.4020   12.3810   20.9430 N.3   234  GLU234     -0.1231
      2  CA        14.0340   11.6630   19.7040 C.3   234  GLU234      0.1699
      3  C         12.7280   12.1700   19.0830 C.2   234  GLU234      0.2592
      4  O         12.6610   12.2990   17.8860 O.2   234  GLU234     -0.2718
      5  CB        13.9310   10.1480   19.9350 C.3   234  GLU234      0.0402
      6  CG        15.2520    9.4660   20.2900 C.3   234  GLU234      0.1161
      7  CD        16.3600    9.7530   19.3260 C.2   234  GLU234      0.3649
      8  OE1       16.1340    9.8030   18.1190 O.co2 234  GLU234     -0.2457
      9  OE2       17.5150    9.9020   19.7700 O.co2 234  GLU234     -0.2457
     10  N         11.7100   12.4860   19.8660 N.am  235  LEU235     -0.1980
     11  CA        10.4590   12.9470   19.2770 C.3   235  LEU235      0.1596
     12  C         10.6060   14.3540   18.7660 C.2   235  LEU235      0.2287
     13  O          9.9760   14.7070   17.7500 O.2   235  LEU235     -0.2864
     14  CB         9.2940   12.8920   20.2920 C.3   235  LEU235      0.0297
     15  CG         8.9140   11.4570   20.7140 C.3   235  LEU235      0.0022
     16  CD1        7.7670   11.5190   21.7980 C.3   235  LEU235      0.0001
     17  CD2        8.4130   10.6160   19.5590 C.3   235  LEU235      0.0001
     18  N         12.3770   14.3280   15.3380 N.3   238  ASN238     -0.1225
     19  CA        11.3540   13.8790   14.3750 C.3   238  ASN238      0.1785
     20  C         10.3700   14.9590   13.9800 C.2   238  ASN238      0.2597
     21  O         10.1000   15.1240   12.8230 O.2   238  ASN238     -0.2718
     22  CB        10.5870   12.6970   14.9390 C.3   238  ASN238      0.1169
     23  CG        11.4040   11.4380   14.9420 C.2   238  ASN238      0.2627
     24  OD1       12.4990   11.3880   14.3770 O.2   238  ASN238     -0.2716
     25  ND2       10.8850   10.4070   15.5740 N.am  238  ASN238     -0.0877
     26  N          9.8090   15.6780   14.9580 N.am  239  ALA239     -0.1979
     27  CA         8.8980   16.7610   14.6910 C.3   239  ALA239      0.1597
     28  C          9.5700   17.9490   13.9490 C.2   239  ALA239      0.2287
     29  O          8.9620   18.6260   13.0970 O.2   239  ALA239     -0.2864
     30  CB         8.1920   17.2180   16.0430 C.3   239  ALA239      0.0319
     31  N         12.4310   17.7820   12.0010 N.3   241  ARG241     -0.1231
     32  CA        12.6620   17.4530   10.5710 C.3   241  ARG241      0.1694
     33  C         11.3800   17.5310    9.7490 C.2   241  ARG241      0.2591
     34  O         11.3460   18.0910    8.6140 O.2   241  ARG241     -0.2718
     35  CB        13.2810   16.0740   10.4130 C.3   241  ARG241      0.0321
     36  CG        13.3860   15.6720    8.9810 C.3   241  ARG241      0.0489
     37  CD        13.8610   14.2410    8.8310 C.3   241  ARG241      0.2205
     38  NE        13.6100   13.7170    7.4830 N.pl3 241  ARG241     -0.0865
     39  CZ        13.1510   12.4950    7.2200 C.cat 241  ARG241      0.5346
     40  NH1       12.8880   11.5910    8.1990 N.pl3 241  ARG241      0.1354
     41  NH2       12.9960   12.1480    5.9490 N.pl3 241  ARG241      0.1354
     42  N         10.3040   16.9460   10.2920 N.am  242  ALA242     -0.1980
     43  CA         9.0420   16.8930    9.5260 C.3   242  ALA242      0.1597
     44  C          8.5640   18.3270    9.2830 C.2   242  ALA242      0.2287
     45  O          8.1590   18.6990    8.1600 O.2   242  ALA242     -0.2864
     46  CB         7.9710   16.0370   10.2560 C.3   242  ALA242      0.0319
     47  N          2.9960   18.7790   15.8750 N.3   273  ASP273     -0.1239
     48  CA         3.7220   19.4950   14.8260 C.3   273  ASP273      0.1674
     49  C          2.8260   19.7120   13.6200 C.2   273  ASP273      0.2266
     50  O          1.7550   19.1060   13.4800 O.2   273  ASP273     -0.2867
     51  CB         4.9910   18.7420   14.3840 C.3   273  ASP273      0.1410
     52  CG         4.6980   17.3850   13.7430 C.2   273  ASP273      0.3668
     53  OD1        5.2300   16.3650   14.2800 O.co2 273  ASP273     -0.2456
     54  OD2        3.9990   17.3390   12.6620 O.co2 273  ASP273     -0.2456
     55  N          4.0350   19.1340   10.4980 N.3   275  GLY275     -0.1225
     56  CA         5.0540   18.5570    9.6250 C.3   275  GLY275      0.1811
     57  C          4.4800   17.6820    8.4930 C.2   275  GLY275      0.2280
     58  O          5.2030   16.8590    7.8830 O.2   275  GLY275     -0.2866
     59  N          2.3790   15.1970    8.4330 N.3   277  GLY277     -0.1210
     60  CA         1.7820   13.9370    8.8170 C.3   277  GLY277      0.1956
     61  C          2.2590   12.7260    8.0700 C.2   277  GLY277      0.2611
     62  O          3.2090   12.7800    7.2520 O.2   277  GLY277     -0.2717
     63  N          1.5220   11.6390    8.2570 N.am  278  VAL278     -0.1979
     64  CA         1.9030   10.3370    7.7800 C.3   278  VAL278      0.1595
     65  C          0.6320    9.5460    7.3720 C.2   278  VAL278      0.2287
     66  O         -0.3240    9.4950    8.1510 O.2   278  VAL278     -0.2864
     67  CB         2.4960    9.5430    9.0560 C.3   278  VAL278      0.0276
     68  CG1        2.7170    8.0880    8.7670 C.3   278  VAL278      0.0022
     69  CG2        3.7490   10.2690    9.7500 C.3   278  VAL278      0.0022
     70  N          1.1230    3.5280    6.9610 N.3   282  ILE282     -0.1245
     71  CA         2.5460    3.3600    7.2660 C.3   282  ILE282      0.1561
     72  C          2.8350    3.6960    8.6890 C.2   282  ILE282      0.2260
     73  O          3.9860    3.5700    9.1350 O.2   282  ILE282     -0.2867
     74  CB         3.5130    4.1590    6.3240 C.3   282  ILE282      0.0252
     75  CG1        3.3580    5.6510    6.5140 C.3   282  ILE282      0.0019
     76  CG2        3.2850    3.7920    4.8430 C.3   282  ILE282      0.0019
     77  CD1        4.5790    6.4540    6.0430 C.3   282  ILE282      0.0001
     78  N          6.4960    2.8750   10.9370 N.3   286  LEU286     -0.1245
     79  CA         7.3650    3.8890   11.5510 C.3   286  LEU286      0.1561
     80  C          8.1140    3.3950   12.8050 C.2   286  LEU286      0.2260
     81  O          9.1610    3.8930   13.1130 O.2   286  LEU286     -0.2867
     82  CB         6.5600    5.1400   11.9840 C.3   286  LEU286      0.0270
     83  CG         5.7250    5.9090   10.9350 C.3   286  LEU286      0.0019
     84  CD1        5.2530    7.2500   11.5830 C.3   286  LEU286      0.0001
     85  CD2        6.5100    6.1430    9.6960 C.3   286  LEU286      0.0001
     86  N         13.4730    1.5000   10.0630 N.3   291  TYR291     -0.1227
     87  CA        12.5660    2.1450    9.1080 C.3   291  TYR291      0.1736
     88  C         12.8890    3.6370    9.1380 C.2   291  TYR291      0.2596
     89  O         12.8280    4.2750   10.1930 O.2   291  TYR291     -0.2718
     90  CB        11.0940    1.9370    9.4190 C.3   291  TYR291      0.0548
     91  CG        10.2870    2.7180    8.3840 C.ar  291  TYR291     -0.0200
     92  CD1       10.0750    2.2050    7.1080 C.ar  291  TYR291     -0.0009
     93  CD2        9.7950    3.9860    8.6680 C.ar  291  TYR291     -0.0009
     94  CE1        9.3780    2.9370    6.1520 C.ar  291  TYR291      0.0417
     95  CE2        9.1180    4.7290    7.6990 C.ar  291  TYR291      0.0417
     96  CZ         8.8960    4.1990    6.4690 C.ar  291  TYR291      0.1957
     97  OH         8.2030    4.9410    5.5300 O.3   291  TYR291     -0.2866
     98  N         13.2160    4.2030    7.9820 N.am  292  SER292     -0.1938
     99  CA        13.3960    5.6690    7.9390 C.3   292  SER292      0.2055
    100  C         13.0430    6.1710    6.5400 C.2   292  SER292      0.2643
    101  O         13.3880    5.5180    5.5540 O.2   292  SER292     -0.2714
    102  CB        14.8600    5.9980    8.2120 C.3   292  SER292      0.2130
    103  OG        15.0980    7.3910    8.1640 O.3   292  SER292     -0.2179
    104  N         12.4120    7.3300    6.4430 N.am  293  THR293     -0.1950
    105  CA        12.2520    7.9760    5.1530 C.3   293  THR293      0.1897
    106  C         13.4530    8.8080    4.8160 C.2   293  THR293      0.2313
    107  O         13.4870    9.4100    3.7620 O.2   293  THR293     -0.2863
    108  CB        11.0420    8.8760    5.0810 C.3   293  THR293      0.1794
    109  OG1       11.0640    9.7860    6.1880 O.3   293  THR293     -0.2208
    110  CG2        9.7430    8.0410    5.1100 C.3   293  THR293      0.0378
    111  N         20.8730   13.5690   12.2740 N.3   299  LEU299     -0.1231
    112  CA        19.5180   13.9150   12.6630 C.3   299  LEU299      0.1693
    113  C         18.5740   12.7000   12.4880 C.2   299  LEU299      0.2592
    114  O         17.8560   12.2940   13.4310 O.2   299  LEU299     -0.2718
    115  CB        19.0310   15.0750   11.8110 C.3   299  LEU299      0.0284
    116  CG        17.6760   15.6290   12.1710 C.3   299  LEU299      0.0019
    117  CD1       17.6740   16.2890   13.5330 C.3   299  LEU299      0.0001
    118  CD2       17.3960   16.6440   11.1140 C.3   299  LEU299      0.0001
    119  N         18.6080   12.0990   11.3020 N.am  300  ALA300     -0.1966
    120  CA        17.7100   10.9710   11.0010 C.3   300  ALA300      0.1728
    121  C         18.3500    9.9660   10.0200 C.2   300  ALA300      0.2617
    122  O         19.2930   10.3120    9.3010 O.2   300  ALA300     -0.2715
    123  CB        16.3500   11.4990   10.4420 C.3   300  ALA300      0.0334
    124  N         17.8230    8.7410    9.9580 N.am  301  GLY301     -0.1940
    125  CA        18.2320    7.8070    8.8970 C.3   301  GLY301      0.2014
    126  C         18.5150    6.4010    9.3910 C.2   301  GLY301      0.2639
    127  O         18.3990    5.4440    8.6410 O.2   301  GLY301     -0.2714
    128  N         18.8660    6.2630   10.6690 N.am  302  PHE302     -0.1959
    129  CA        19.0280    4.9030   11.2600 C.3   302  PHE302      0.1771
    130  C         17.7480    4.2090   11.6900 C.2   302  PHE302      0.2620
    131  O         17.7200    2.9950   11.8600 O.2   302  PHE302     -0.2715
    132  CB        20.0660    4.9210   12.3800 C.3   302  PHE302      0.0574
    133  CG        21.4620    5.1820   11.8700 C.ar  302  PHE302     -0.0200
    134  CD1       22.0870    4.2470   11.0380 C.ar  302  PHE302     -0.0042
    135  CD2       22.1130    6.3680   12.1450 C.ar  302  PHE302     -0.0042
    136  CE1       23.3470    4.4730   10.5170 C.ar  302  PHE302     -0.0003
    137  CE2       23.3970    6.6000   11.6310 C.ar  302  PHE302     -0.0003
    138  CZ        23.9980    5.6540   10.8240 C.ar  302  PHE302     -0.0000
    139  N         16.7000    4.9940   11.9110 N.am  303  GLY303     -0.1940
    140  CA        15.3870    4.4560   12.2030 C.3   303  GLY303      0.2014
    141  C         15.2740    3.7580   13.5640 C.2   303  GLY303      0.2639
    142  O         14.5480    2.7730   13.7030 O.2   303  GLY303     -0.2714
    143  N         15.9400    4.2940   14.5820 N.am  304  TYR304     -0.1959
    144  CA        15.8660    3.6940   15.9200 C.3   304  TYR304      0.1771
    145  C         15.1270    4.6450   16.8590 C.2   304  TYR304      0.2620
    146  O         14.7210    4.2460   17.9520 O.2   304  TYR304     -0.2715
    147  CB        17.2920    3.4270   16.4890 C.3   304  TYR304      0.0574
    148  CG        17.7770    2.0160   16.2650 C.ar  304  TYR304     -0.0198
    149  CD1       17.8300    1.4780   15.0040 C.ar  304  TYR304     -0.0009
    150  CD2       18.1770    1.2330   17.3200 C.ar  304  TYR304     -0.0009
    151  CE1       18.2730    0.1530   14.7870 C.ar  304  TYR304      0.0417
    152  CE2       18.6290   -0.0830   17.1320 C.ar  304  TYR304      0.0417
    153  CZ        18.6460   -0.6240   15.8740 C.ar  304  TYR304      0.1957
    154  OH        19.1010   -1.9190   15.7000 O.3   304  TYR304     -0.2866
    155  N         14.9760    5.9000   16.4630 N.am  305  GLY305     -0.1940
    156  CA        14.3580    6.8910   17.3560 C.3   305  GLY305      0.2014
    157  C         13.0120    6.4840   17.9720 C.2   305  GLY305      0.2639
    158  O         12.7990    6.6290   19.1970 O.2   305  GLY305     -0.2714
    159  N         12.0580    6.0620   17.1330 N.am  306  LEU306     -0.1963
    160  CA        10.7390    5.6600   17.6370 C.3   306  LEU306      0.1713
    161  C         10.7260    4.3860   18.5000 C.2   306  LEU306      0.2458
    162  O         10.1770    4.4130   19.5760 O.2   306  LEU306     -0.2730
    163  CB         9.6570    5.5590   16.5200 C.3   306  LEU306      0.0310
    164  CG         9.1410    6.9390   16.0170 C.3   306  LEU306      0.0022
    165  CD1        8.1800    6.7570   14.8300 C.3   306  LEU306      0.0001
    166  CD2        8.4740    7.6880   17.1680 C.3   306  LEU306      0.0001
    167  N         11.2160    3.2520   17.9720 N.am  307  PRO307     -0.2727
    168  CA        11.1060    2.0160   18.7210 C.3   307  PRO307      0.1402
    169  C         11.9140    2.0480   20.0590 C.2   307  PRO307      0.2269
    170  O         11.4760    1.4790   21.0570 O.2   307  PRO307     -0.2865
    171  CB        11.6900    0.9630   17.7620 C.3   307  PRO307      0.0296
    172  CG        12.5590    1.7280   16.8080 C.3   307  PRO307      0.0237
    173  CD        11.7790    3.0410   16.6320 C.3   307  PRO307      0.0939
    174  N          1.7690    7.4530   18.3780 N.3   322  LEU322     -0.1245
    175  CA         1.7730    8.5530   17.4200 C.3   322  LEU322      0.1561
    176  C          0.3980    8.4580   16.7040 C.2   322  LEU322      0.2260
    177  O         -0.0690    7.3560   16.3630 O.2   322  LEU322     -0.2867
    178  CB         2.9150    8.3350   16.4260 C.3   322  LEU322      0.0270
    179  CG         3.9710    9.3840   16.1030 C.3   322  LEU322      0.0019
    180  CD1        4.9290    9.4890   17.2360 C.3   322  LEU322      0.0001
    181  CD2        4.7990    9.0430   14.8560 C.3   322  LEU322      0.0001
    182  N          1.2930   15.8900   12.9830 N.3   330  THR330     -0.1218
    183  CA         1.3260   14.6590   13.8330 C.3   330  THR330      0.1862
    184  C          1.3290   14.9790   15.3290 C.2   330  THR330      0.2287
    185  O          1.9590   15.9510   15.7530 O.2   330  THR330     -0.2866
    186  CB         2.5800   13.8350   13.5010 C.3   330  THR330      0.1770
    187  OG1        2.5480   13.4180   12.1290 O.3   330  THR330     -0.2211
    188  CG2        2.7070   12.5590   14.3970 C.3   330  THR330      0.0375
    189  N          2.6050   13.2450   18.7950 N.3   332  ALA332     -0.1245
    190  CA         3.3100   12.1710   19.4580 C.3   332  ALA332      0.1562
    191  C          3.0230   12.2670   20.9590 C.2   332  ALA332      0.2260
    192  O          3.1120   13.3620   21.5270 O.2   332  ALA332     -0.2867
    193  CB         4.8140   12.2850   19.2160 C.3   332  ALA332      0.0290
@<TRIPOS>BOND
     1   107   106    2
     2   106   105    1
     3    76    74    1
     4   108   110    1
     5   108   105    1
     6   108   109    1
     7   105   104    1
     8    97    96    1
     9   101   100    2
    10    41    39    1
    11    77    75    1
    12    94    96   ar
    13    94    92   ar
    14    74    75    1
    15    74    71    1
    16   104   100   am
    17    96    95   ar
    18   100    99    1
    19    70    71    1
    20    92    91   ar
    21    39    38    2
    22    39    40    1
    23    62    61    2
    24    71    72    1
    25    65    64    1
    26    65    66    2
    27    38    37    1
    28    95    93   ar
    29    64    63    1
    30    64    67    1
    31    58    57    2
    32    99    98    1
    33    99   102    1
    34    98    88   am
    35    61    63   am
    36    61    60    1
    37    45    44    2
    38   103   102    1
    39    91    93   ar
    40    91    90    1
    41    59    60    1
    42    57    56    1
    43    34    33    2
    44   127   126    2
    45    72    73    2
    46    68    67    1
    47    37    36    1
    48   125   126    1
    49   125   124    1
    50    36    35    1
    51    67    69    1
    52    87    88    1
    53    87    90    1
    54    87    86    1
    55    88    89    2
    56    44    43    1
    57   122   121    2
    58   126   128   am
    59    43    46    1
    60    43    42    1
    61    56    55    1
    62    85    83    1
    63    33    42   am
    64    33    32    1
    65   124   121   am
    66   121   120    1
    67    35    32    1
    68   123   120    1
    69   136   138   ar
    70   136   134   ar
    71    32    31    1
    72   128   129    1
    73   138   137   ar
    74    83    84    1
    75    83    82    1
    76    78    79    1
    77   120   119    1
    78   134   133   ar
    79   118   116    1
    80   129   130    1
    81   129   132    1
    82   119   113   am
    83    79    82    1
    84    79    80    1
    85   137   135   ar
    86   130   131    2
    87   130   139   am
    88   115   116    1
    89   115   112    1
    90   133   135   ar
    91   133   132    1
    92   139   140    1
    93   187   186    1
    94   116   117    1
    95   140   141    1
    96   111   112    1
    97   113   112    1
    98   113   114    2
    99    54    52   ar
   100    80    81    2
   101    21    20    2
   102   182   183    1
   103    29    28    2
   104    50    49    2
   105   186   183    1
   106   186   188    1
   107   141   142    2
   108   141   143   am
   109    49    48    1
   110    52    53   ar
   111    52    51    1
   112   183   184    1
   113    28    27    1
   114    20    19    1
   115    20    26   am
   116    19    22    1
   117    19    18    1
   118    24    23    2
   119    51    48    1
   120   143   144    1
   121    27    26    1
   122    27    30    1
   123   151   149   ar
   124   151   153   ar
   125    48    47    1
   126   165   164    1
   127   181   179    1
   128    22    23    1
   129    23    25   am
   130   149   148   ar
   131   184   185    2
   132   154   153    1
   133   153   152   ar
   134   144   147    1
   135   144   145    1
   136   164   163    1
   137   164   166    1
   138   179   178    1
   139   179   180    1
   140   148   147    1
   141   148   150   ar
   142   177   176    2
   143   178   175    1
   144   155   145   am
   145   155   156    1
   146   163   160    1
   147   173   172    1
   148   173   167    1
   149   176   175    1
   150   172   171    1
   151   145   146    2
   152   152   150   ar
   153   159   160    1
   154   159   157   am
   155   156   157    1
   156   175   174    1
   157   160   161    1
   158    13    12    2
   159   171   168    1
   160     4     3    2
   161   157   158    2
   162   167   161   am
   163   167   168    1
   164     8     7   ar
   165   161   162    2
   166   168   169    1
   167    12    11    1
   168   189   190    1
   169     3     2    1
   170     3    10   am
   171   193   190    1
   172    11    10    1
   173    11    14    1
   174     7     9   ar
   175     7     6    1
   176   190   191    1
   177    17    15    1
   178     2     5    1
   179     2     1    1
   180     5     6    1
   181   169   170    2
   182    14    15    1
   183    15    16    1
   184   191   192    2
