@<TRIPOS>MOLECULE
tmp/3d2sF00.pdb
 100 97 0 0 0
SMALL
GASTEIGER

@<TRIPOS>ATOM
      1  N         25.3020    2.4390   27.8450 N.3     6  GLU6       -0.1231
      2  CA        24.2800    1.7410   28.5850 C.3     6  GLU6        0.1699
      3  C         22.9370    2.4600   28.4600 C.2     6  GLU6        0.2592
      4  O         22.8560    3.6900   28.5640 O.2     6  GLU6       -0.2718
      5  CB        24.7050    1.6310   30.0580 C.3     6  GLU6        0.0402
      6  CG        23.7810    0.7770   30.9040 C.3     6  GLU6        0.1161
      7  CD        24.3640    0.4800   32.2780 C.2     6  GLU6        0.3649
      8  OE1       25.5570    0.7950   32.5260 O.co2   6  GLU6       -0.2457
      9  OE2       23.6060   -0.0490   33.1270 O.co2   6  GLU6       -0.2457
     10  N         21.8780    1.6770   28.2740 N.am    7  VAL7       -0.1966
     11  CA        20.5230    2.2050   28.1610 C.3     7  VAL7        0.1727
     12  C         19.8980    2.4770   29.5240 C.2     7  VAL7        0.2616
     13  O         20.1140    1.7140   30.4570 O.2     7  VAL7       -0.2715
     14  CB        19.6070    1.2400   27.3620 C.3     7  VAL7        0.0290
     15  CG1       18.1610    1.7610   27.2930 C.3     7  VAL7        0.0023
     16  CG2       20.1280    1.1120   25.9310 C.3     7  VAL7        0.0023
     17  N         19.0760    3.5190   29.5730 N.am    8  CYS8       -0.1954
     18  CA        18.3480    3.9370   30.7780 C.3     8  CYS8        0.1843
     19  C         17.1920    2.9800   31.0260 C.2     8  CYS8        0.2625
     20  O         16.2490    2.9360   30.2370 O.2     8  CYS8       -0.2714
     21  CB        17.7970    5.3380   30.5450 C.3     8  CYS8        0.0997
     22  SG        16.9030    5.9450   32.0120 S.3     8  CYS8       -0.0797
     23  N         17.2690    2.2090   32.1040 N.am    9  ARG9       -0.1963
     24  CA        16.2310    1.2130   32.3920 C.3     9  ARG9        0.1729
     25  C         14.9110    1.8340   32.8120 C.2     9  ARG9        0.2616
     26  O         13.8580    1.3270   32.4550 O.2     9  ARG9       -0.2715
     27  CB        16.7220    0.1880   33.4160 C.3     9  ARG9        0.0348
     28  CG        17.8840   -0.6320   32.8750 C.3     9  ARG9        0.0492
     29  CD        18.1120   -1.9320   33.6270 C.3     9  ARG9        0.2205
     30  NE        18.5440   -1.7380   35.0010 N.pl3   9  ARG9       -0.0865
     31  CZ        19.7940   -1.5330   35.4000 C.cat   9  ARG9        0.5346
     32  NH1       20.7900   -1.4820   34.5310 N.pl3   9  ARG9        0.1354
     33  NH2       20.0510   -1.4080   36.6970 N.pl3   9  ARG9        0.1354
     34  N         14.9630    2.9580   33.5220 N.am   10  GLU10      -0.1977
     35  CA        13.7450    3.7060   33.8310 C.3    10  GLU10       0.1602
     36  C         13.0420    4.2080   32.5830 C.2    10  GLU10       0.2287
     37  O         11.8340    4.0880   32.4760 O.2    10  GLU10      -0.2864
     38  CB        14.0630    4.8470   34.7870 C.3    10  GLU10       0.0415
     39  CG        14.3500    4.2970   36.1760 C.3    10  GLU10       0.1163
     40  CD        14.9310    5.3060   37.1260 C.2    10  GLU10       0.3649
     41  OE1       15.4010    4.8640   38.1920 O.co2  10  GLU10      -0.2457
     42  OE2       14.9070    6.5170   36.8410 O.co2  10  GLU10      -0.2457
     43  N         11.1770    1.4330   30.9570 N.3    13  ARG13      -0.1245
     44  CA         9.9050    1.1780   31.6410 C.3    13  ARG13       0.1563
     45  C          8.8810    2.2960   31.4300 C.2    13  ARG13       0.2260
     46  O          7.7100    2.1090   31.7590 O.2    13  ARG13      -0.2867
     47  CB        10.1470    0.9360   33.1300 C.3    13  ARG13       0.0307
     48  CG        11.0770   -0.2350   33.3610 C.3    13  ARG13       0.0489
     49  CD        11.0410   -0.7170   34.7830 C.3    13  ARG13       0.2205
     50  NE        11.3950    0.3300   35.7360 N.pl3  13  ARG13      -0.0865
     51  CZ        12.5920    0.5020   36.2910 C.cat  13  ARG13       0.5346
     52  NH1       13.6180   -0.2900   36.0020 N.pl3  13  ARG13       0.1354
     53  NH2       12.7590    1.4880   37.1630 N.pl3  13  ARG13       0.1354
     54  N         14.1200   12.5610   34.1760 N.3    18  ARG18      -0.1245
     55  CA        15.2460   13.4790   34.1470 C.3    18  ARG18       0.1563
     56  C         15.2760   14.2150   32.8280 C.2    18  ARG18       0.2260
     57  O         15.7050   15.3640   32.7780 O.2    18  ARG18      -0.2867
     58  CB        16.5560   12.7200   34.3220 C.3    18  ARG18       0.0307
     59  CG        16.6020   11.9280   35.5910 C.3    18  ARG18       0.0489
     60  CD        17.8890   11.1570   35.7130 C.3    18  ARG18       0.2205
     61  NE        17.8520   10.2320   36.8410 N.pl3  18  ARG18      -0.0865
     62  CZ        17.1020    9.1340   36.8880 C.cat  18  ARG18       0.5346
     63  NH1       16.3280    8.7870   35.8630 N.pl3  18  ARG18       0.1354
     64  NH2       17.1540    8.3620   37.9640 N.pl3  18  ARG18       0.1354
     65  N         19.6720   15.3310   30.9590 N.3    22  ASP22      -0.1225
     66  CA        20.1800   15.1870   32.3150 C.3    22  ASP22       0.1805
     67  C         20.5760   13.7600   32.6770 C.2    22  ASP22       0.2598
     68  O         21.3950   13.5680   33.5700 O.2    22  ASP22      -0.2718
     69  CB        19.1210   15.6650   33.3050 C.3    22  ASP22       0.1424
     70  CG        19.1530   17.1590   33.5280 C.2    22  ASP22       0.3668
     71  OD1       18.2700   17.6190   34.2650 O.co2  22  ASP22      -0.2456
     72  OD2       20.0190   17.8820   32.9910 O.co2  22  ASP22      -0.2456
     73  N         19.9750   12.7810   32.0090 N.am   23  CYS23      -0.1956
     74  CA        20.1740   11.3750   32.3170 C.3    23  CYS23       0.1843
     75  C         21.5380   10.8910   31.8460 C.2    23  CYS23       0.2625
     76  O         21.9840   11.2640   30.7500 O.2    23  CYS23      -0.2714
     77  CB        19.0680   10.5690   31.6600 C.3    23  CYS23       0.0997
     78  SG        19.0180    8.8430   32.1180 S.3    23  CYS23      -0.0797
     79  N         22.2110   10.0980   32.6770 N.am   24  ARG24      -0.1963
     80  CA        23.5540    9.6280   32.3550 C.3    24  ARG24       0.1729
     81  C         23.5190    8.4450   31.4130 C.2    24  ARG24       0.2616
     82  O         24.5770    8.0260   30.9530 O.2    24  ARG24      -0.2715
     83  CB        24.3860    9.2930   33.6020 C.3    24  ARG24       0.0348
     84  CG        23.9540    8.0640   34.3930 C.3    24  ARG24       0.0492
     85  CD        24.9310    7.7340   35.5320 C.3    24  ARG24       0.2205
     86  NE        25.8220    6.6330   35.1590 N.pl3  24  ARG24      -0.0865
     87  CZ        27.0150    6.7590   34.5780 C.cat  24  ARG24       0.5346
     88  NH1       27.5350    7.9570   34.3200 N.pl3  24  ARG24       0.1354
     89  NH2       27.7070    5.6630   34.2530 N.pl3  24  ARG24       0.1354
     90  N         22.3220    7.9270   31.1330 N.am   25  PHE25      -0.1974
     91  CA        22.1720    6.7180   30.3040 C.3    25  PHE25       0.1639
     92  C         21.4020    7.0110   29.0090 C.2    25  PHE25       0.2290
     93  O         20.7100    8.0200   28.9000 O.2    25  PHE25      -0.2864
     94  CB        21.4730    5.5980   31.0820 C.3    25  PHE25       0.0560
     95  CG        22.2360    5.1030   32.2880 C.ar   25  PHE25      -0.0200
     96  CD1       23.4820    4.5360   32.1450 C.ar   25  PHE25      -0.0042
     97  CD2       21.7020    5.2240   33.5720 C.ar   25  PHE25      -0.0042
     98  CE1       24.1930    4.0890   33.2650 C.ar   25  PHE25      -0.0003
     99  CE2       22.4080    4.7780   34.6830 C.ar   25  PHE25      -0.0003
    100  CZ        23.6440    4.2150   34.5250 C.ar   25  PHE25      -0.0000
@<TRIPOS>BOND
     1    16    14    1
     2    15    14    1
     3    14    11    1
     4     1     2    1
     5    11    10    1
     6    11    12    1
     7    10     3   am
     8     3     4    2
     9     3     2    1
    10     2     5    1
    11    93    92    2
    12    92    91    1
    13    12    17   am
    14    12    13    2
    15    17    18    1
    16     5     6    1
    17    20    19    2
    18    91    94    1
    19    91    90    1
    20    21    18    1
    21    21    22    1
    22    76    75    2
    23    18    19    1
    24     6     7    1
    25    82    81    2
    26    43    44    1
    27    65    66    1
    28    19    23   am
    29    94    95    1
    30    90    81   am
    31    81    80    1
    32    45    44    1
    33    45    46    2
    34    44    47    1
    35    77    78    1
    36    77    74    1
    37    75    74    1
    38    75    79   am
    39    73    74    1
    40    73    67   am
    41    23    24    1
    42    96    95   ar
    43    96    98   ar
    44     7     8   ar
    45     7     9   ar
    46    95    97   ar
    47    66    67    1
    48    66    69    1
    49    80    79    1
    50    80    83    1
    51    24    25    1
    52    24    27    1
    53    26    25    2
    54    37    36    2
    55    36    35    1
    56    67    68    2
    57    57    56    2
    58    25    34   am
    59    56    55    1
    60    28    27    1
    61    28    29    1
    62    72    70   ar
    63    47    48    1
    64    98   100   ar
    65    69    70    1
    66    48    49    1
    67    34    35    1
    68    70    71   ar
    69    97    99   ar
    70    83    84    1
    71    29    30    1
    72    35    38    1
    73    55    54    1
    74    55    58    1
    75    89    87    1
    76    88    87    1
    77    58    59    1
    78    84    85    1
    79   100    99   ar
    80    32    31    1
    81    87    86    2
    82    49    50    1
    83    38    39    1
    84    30    31    2
    85    86    85    1
    86    31    33    1
    87    59    60    1
    88    60    61    1
    89    50    51    2
    90    63    62    1
    91    52    51    1
    92    39    40    1
    93    51    53    1
    94    42    40   ar
    95    61    62    2
    96    62    64    1
    97    40    41   ar
