@<TRIPOS>MOLECULE
tmp/3d2yA00.pdb
 175 171 0 0 0
SMALL
GASTEIGER

@<TRIPOS>ATOM
      1  N         33.6270   46.1740   89.8910 N.3    31  HIS31      -0.1226
      2  CA        32.8350   46.1050   91.1370 C.3    31  HIS31       0.1752
      3  C         33.6700   46.5420   92.3140 C.2    31  HIS31       0.2596
      4  O         34.9160   46.4670   92.2280 O.2    31  HIS31      -0.2718
      5  CB        32.4340   44.6350   91.4480 C.3    31  HIS31       0.0759
      6  CG        31.6140   43.9660   90.3810 C.ar   31  HIS31       0.0818
      7  ND1       30.2360   43.9200   90.4310 N.ar   31  HIS31      -0.2268
      8  CD2       31.9810   43.2830   89.2700 C.ar   31  HIS31       0.1154
      9  CE1       29.7890   43.2690   89.3730 C.ar   31  HIS31       0.1986
     10  NE2       30.8260   42.8880   88.6410 N.ar   31  HIS31      -0.2212
     11  N         33.0270   46.9260   93.4170 N.am   32  TYR32      -0.1962
     12  CA        33.6700   46.8120   94.7530 C.3    32  TYR32       0.1771
     13  C         32.9960   45.7250   95.6010 C.2    32  TYR32       0.2620
     14  O         31.8360   45.3460   95.3620 O.2    32  TYR32      -0.2715
     15  CB        33.8010   48.1450   95.5600 C.3    32  TYR32       0.0574
     16  CG        32.5110   48.9090   95.7970 C.ar   32  TYR32      -0.0198
     17  CD1       31.3940   48.3120   96.4180 C.ar   32  TYR32      -0.0009
     18  CD2       32.3870   50.2490   95.3800 C.ar   32  TYR32      -0.0009
     19  CE1       30.2010   49.0170   96.5770 C.ar   32  TYR32       0.0417
     20  CE2       31.1940   50.9750   95.5810 C.ar   32  TYR32       0.0417
     21  CZ        30.1000   50.3430   96.1630 C.ar   32  TYR32       0.1957
     22  OH        28.8960   51.0250   96.3530 O.3    32  TYR32      -0.2866
     23  N         33.7020   45.2860   96.6360 N.am   33  THR33      -0.1937
     24  CA        33.2710   44.1260   97.4280 C.3    33  THR33       0.2028
     25  C         32.3360   44.5340   98.5530 C.2    33  THR33       0.2642
     26  O         31.5080   43.7440   98.9990 O.2    33  THR33      -0.2714
     27  CB        34.4810   43.3740   98.0540 C.3    33  THR33       0.1808
     28  OG1       35.2260   44.1960   98.9750 O.3    33  THR33      -0.2208
     29  CG2       35.4020   42.8740   97.0260 C.3    33  THR33       0.0379
     30  N         32.4890   45.7770   98.9930 N.am   34  ALA34      -0.1963
     31  CA        31.9030   46.2480  100.2630 C.3    34  ALA34       0.1728
     32  C         32.1840   45.3450  101.4440 C.2    34  ALA34       0.2616
     33  O         31.2970   45.1120  102.2540 O.2    34  ALA34      -0.2715
     34  CB        30.3610   46.5020  100.1190 C.3    34  ALA34       0.0334
     35  N         33.4250   44.8370  101.5520 N.am   35  ASP35      -0.1971
     36  CA        33.7990   43.8880  102.6080 C.3    35  ASP35       0.1709
     37  C         35.3170   43.6350  102.5120 C.2    35  ASP35       0.2293
     38  O         35.9480   43.9700  101.4940 O.2    35  ASP35      -0.2864
     39  CB        33.0040   42.5730  102.4510 C.3    35  ASP35       0.1436
     40  CG        32.7750   41.8290  103.7800 C.2    35  ASP35       0.3671
     41  OD1       33.3100   42.2440  104.8380 O.co2  35  ASP35      -0.2456
     42  OD2       32.0580   40.7920  103.7460 O.co2  35  ASP35      -0.2456
     43  N         35.3620   38.6610  101.4900 N.3    40  SER40      -0.1217
     44  CA        34.9480   38.7570  100.0550 C.3    40  SER40       0.1889
     45  C         35.3470   37.4420   99.3670 C.2    40  SER40       0.2288
     46  O         34.6010   36.8930   98.5410 O.2    40  SER40      -0.2866
     47  CB        35.6050   39.9540   99.3500 C.3    40  SER40       0.2089
     48  OG        35.2360   41.1710   99.9760 O.3    40  SER40      -0.2183
     49  N         32.8480   34.7960  100.1600 N.3    43  THR43      -0.1203
     50  CA        31.5640   35.0410   99.5170 C.3    43  THR43       0.1994
     51  C         31.6380   34.7400   98.0180 C.2    43  THR43       0.2617
     52  O         30.7650   34.0740   97.4800 O.2    43  THR43      -0.2717
     53  CB        31.0810   36.5050   99.7380 C.3    43  THR43       0.1784
     54  OG1       30.8870   36.7660  101.1430 O.3    43  THR43      -0.2211
     55  CG2       29.7930   36.7760   98.9780 C.3    43  THR43       0.0376
     56  N         32.6970   35.1980   97.3690 N.am   44  LEU44      -0.1979
     57  CA        32.8600   35.0020   95.9330 C.3    44  LEU44       0.1596
     58  C         33.2430   33.5930   95.4870 C.2    44  LEU44       0.2287
     59  O         33.3790   33.3370   94.2720 O.2    44  LEU44      -0.2864
     60  CB        33.8720   36.0050   95.4030 C.3    44  LEU44       0.0297
     61  CG        33.4600   37.4740   95.5350 C.3    44  LEU44       0.0022
     62  CD1       34.6720   38.4250   95.3930 C.3    44  LEU44       0.0001
     63  CD2       32.3090   37.8290   94.5630 C.3    44  LEU44       0.0001
     64  N         26.2830   31.6200   95.6450 N.3    48  GLN48      -0.1231
     65  CA        25.3790   32.6870   95.2040 C.3    48  GLN48       0.1698
     66  C         26.0300   33.6760   94.2300 C.2    48  GLN48       0.2592
     67  O         25.4060   34.1200   93.2770 O.2    48  GLN48      -0.2718
     68  CB        24.7740   33.4130   96.4130 C.3    48  GLN48       0.0381
     69  CG        23.8210   32.5260   97.2220 C.3    48  GLN48       0.0905
     70  CD        23.2590   33.2130   98.4490 C.2    48  GLN48       0.2608
     71  OE1       22.4310   34.1240   98.3430 O.2    48  GLN48      -0.2717
     72  NE2       23.6820   32.7570   99.6290 N.am   48  GLN48      -0.0878
     73  N         27.2880   34.0280   94.4620 N.am   49  VAL49      -0.1980
     74  CA        27.9470   34.9770   93.5790 C.3    49  VAL49       0.1595
     75  C         29.4190   34.6220   93.3910 C.2    49  VAL49       0.2287
     76  O         29.9980   33.9400   94.2080 O.2    49  VAL49      -0.2864
     77  CB        27.7190   36.4530   94.0380 C.3    49  VAL49       0.0276
     78  CG1       27.8500   36.5970   95.5540 C.3    49  VAL49       0.0022
     79  CG2       28.6820   37.3930   93.3400 C.3    49  VAL49       0.0022
     80  N         29.1670   34.6440   88.3400 N.3    79  TRP79      -0.1227
     81  CA        27.8950   35.2110   88.8180 C.3    79  TRP79       0.1737
     82  C         28.1030   36.5760   89.5060 C.2    79  TRP79       0.2595
     83  O         27.9940   36.7010   90.7360 O.2    79  TRP79      -0.2718
     84  CB        27.1900   34.2080   89.7410 C.3    79  TRP79       0.0564
     85  CG        26.4080   33.1220   89.0150 C.ar   79  TRP79       0.0003
     86  CD1       26.3630   32.8890   87.6780 C.ar   79  TRP79       0.0946
     87  CD2       25.5780   32.1200   89.6320 C.ar   79  TRP79       0.0152
     88  NE1       25.5340   31.8200   87.4120 N.ar   79  TRP79      -0.2442
     89  CE2       25.0550   31.3210   88.6060 C.ar   79  TRP79       0.0810
     90  CE3       25.2550   31.8110   90.9710 C.ar   79  TRP79       0.0012
     91  CZ2       24.1640   30.2460   88.8650 C.ar   79  TRP79       0.0191
     92  CZ3       24.3740   30.7750   91.2230 C.ar   79  TRP79       0.0001
     93  CH2       23.8520   29.9900   90.1840 C.ar   79  TRP79       0.0015
     94  N         28.4570   37.5950   88.6880 N.am   80  HIS80      -0.1961
     95  CA        28.8190   38.9580   89.1460 C.3    80  HIS80       0.1787
     96  C         27.8820   40.1090   88.7170 C.2    80  HIS80       0.2620
     97  O         27.7130   41.0850   89.4360 O.2    80  HIS80      -0.2715
     98  CB        30.2860   39.3110   88.7750 C.3    80  HIS80       0.0785
     99  CG        30.4960   39.5030   87.2980 C.ar   80  HIS80       0.0821
    100  ND1       30.4530   40.7470   86.7090 N.ar   80  HIS80      -0.2267
    101  CD2       30.6610   38.6130   86.2890 C.ar   80  HIS80       0.1154
    102  CE1       30.6180   40.6220   85.3990 C.ar   80  HIS80       0.1986
    103  NE2       30.7360   39.3360   85.1180 N.ar   80  HIS80      -0.2212
    104  N         27.3050   40.0200   87.5210 N.am   81  ALA81      -0.1963
    105  CA        26.4560   41.1010   86.9530 C.3    81  ALA81       0.1728
    106  C         25.0000   41.0480   87.4260 C.2    81  ALA81       0.2617
    107  O         24.3350   42.0980   87.5850 O.2    81  ALA81      -0.2715
    108  CB        26.4930   41.0600   85.4090 C.3    81  ALA81       0.0334
    109  N         24.4760   39.8310   87.5750 N.am   82  GLY82      -0.1940
    110  CA        23.0620   39.6520   87.8670 C.3    82  GLY82       0.2014
    111  C         22.1310   40.1340   86.7670 C.2    82  GLY82       0.2638
    112  O         22.4900   40.1550   85.5650 O.2    82  GLY82      -0.2714
    113  N         20.9030   40.4900   87.1630 N.am   83  ILE83      -0.1977
    114  CA        19.9430   41.0830   86.2140 C.3    83  ILE83       0.1596
    115  C         20.5260   42.3790   85.7020 C.2    83  ILE83       0.2287
    116  O         20.8390   43.2550   86.5060 O.2    83  ILE83      -0.2864
    117  CB        18.5780   41.3400   86.8780 C.3    83  ILE83       0.0276
    118  CG1       17.9420   39.9920   87.2440 C.3    83  ILE83       0.0022
    119  CG2       17.6460   42.1750   85.9710 C.3    83  ILE83       0.0022
    120  CD1       17.0560   40.0790   88.4790 C.3    83  ILE83       0.0001
    121  N         26.4520   38.4880   82.5450 N.3    93  ASN93      -0.1240
    122  CA        27.3230   37.4030   82.9970 C.3    93  ASN93       0.1653
    123  C         27.8350   36.6480   81.7770 C.2    93  ASN93       0.2266
    124  O         28.9940   36.2620   81.7460 O.2    93  ASN93      -0.2867
    125  CB        26.5600   36.4160   83.8530 C.3    93  ASN93       0.1155
    126  CG        26.4760   36.8490   85.2930 C.2    93  ASN93       0.2627
    127  OD1       27.1390   37.8140   85.6880 O.2    93  ASN93      -0.2716
    128  ND2       25.6440   36.1460   86.0930 N.am   93  ASN93      -0.0877
    129  N         36.3840   42.2570   90.8070 N.3   100  GLU100     -0.1245
    130  CA        35.9950   42.7800   92.1230 C.3   100  GLU100      0.1567
    131  C         37.2170   43.3970   92.8240 C.2   100  GLU100      0.2260
    132  O         38.2990   42.7870   92.8890 O.2   100  GLU100     -0.2867
    133  CB        35.4150   41.6580   92.9840 C.3   100  GLU100      0.0388
    134  CG        33.9960   41.2230   92.5770 C.3   100  GLU100      0.1160
    135  CD        32.9630   41.8070   93.4880 C.2   100  GLU100      0.3649
    136  OE1       33.2450   41.9140   94.6860 O.co2 100  GLU100     -0.2457
    137  OE2       31.8550   42.1200   93.0490 O.co2 100  GLU100     -0.2457
    138  N         29.3360   48.2410   87.3940 N.3   147  HIS147     -0.1241
    139  CA        28.1340   47.4460   87.6530 C.3   147  HIS147      0.1621
    140  C         26.8760   48.3520   87.6720 C.2   147  HIS147      0.2264
    141  O         25.7760   47.9630   87.2260 O.2   147  HIS147     -0.2867
    142  CB        28.2990   46.8310   89.0010 C.3   147  HIS147      0.0745
    143  CG        27.3630   45.6870   89.2880 C.ar  147  HIS147      0.0817
    144  ND1       27.2530   45.1290   90.5450 N.ar  147  HIS147     -0.2268
    145  CD2       26.5330   44.9770   88.4920 C.ar  147  HIS147      0.1154
    146  CE1       26.4080   44.1140   90.5070 C.ar  147  HIS147      0.1986
    147  NE2       25.9420   44.0190   89.2770 N.ar  147  HIS147     -0.2212
    148  N         19.7590   48.8170   90.8940 N.3   154  ARG154     -0.1231
    149  CA        20.1170   47.8530   91.9470 C.3   154  ARG154      0.1694
    150  C         21.4400   48.1330   92.6090 C.2   154  ARG154      0.2591
    151  O         21.6580   47.7070   93.7530 O.2   154  ARG154     -0.2718
    152  CB        20.1650   46.4120   91.4020 C.3   154  ARG154      0.0321
    153  CG        18.7980   45.8880   90.8930 C.3   154  ARG154      0.0489
    154  CD        18.8320   44.3750   90.5790 C.3   154  ARG154      0.2205
    155  NE        19.8660   43.9920   89.6010 N.pl3 154  ARG154     -0.0865
    156  CZ        21.0150   43.4030   89.9450 C.cat 154  ARG154      0.5346
    157  NH1       21.2400   43.1080   91.2090 N.pl3 154  ARG154      0.1354
    158  NH2       21.9300   43.0720   89.0270 N.pl3 154  ARG154      0.1354
    159  N         22.3620   48.7470   91.8570 N.am  155  LYS155     -0.1980
    160  CA        23.7790   48.8470   92.2940 C.3   155  LYS155      0.1596
    161  C         24.3640   50.2430   92.0870 C.2   155  LYS155      0.2287
    162  O         23.9660   50.9680   91.1690 O.2   155  LYS155     -0.2864
    163  CB        24.6420   47.8340   91.5360 C.3   155  LYS155      0.0298
    164  CG        24.2200   46.3980   91.7040 C.3   155  LYS155      0.0038
    165  CD        24.5150   45.8570   93.1010 C.3   155  LYS155      0.0206
    166  CE        23.8690   44.5070   93.2700 C.3   155  LYS155      0.1093
    167  NZ        24.4830   43.8660   94.5120 N.3   155  LYS155     -0.1314
    168  N         28.0440   50.3460   92.6110 N.3   157  ASP157     -0.1239
    169  CA        29.4670   50.0500   92.4850 C.3   157  ASP157      0.1674
    170  C         30.0310   50.1710   91.0760 C.2   157  ASP157      0.2266
    171  O         29.2970   49.9130   90.0970 O.2   157  ASP157     -0.2867
    172  CB        29.8340   48.7250   93.1980 C.3   157  ASP157      0.1410
    173  CG        29.2100   47.4940   92.5550 C.2   157  ASP157      0.3668
    174  OD1       29.9960   46.6170   92.1270 O.co2 157  ASP157     -0.2456
    175  OD2       27.9570   47.4150   92.4560 O.co2 157  ASP157     -0.2456
@<TRIPOS>BOND
     1   124   123    2
     2   123   122    1
     3   121   122    1
     4   122   125    1
     5   125   126    1
     6   103   102   ar
     7   103   101   ar
     8   126   127    2
     9   126   128   am
    10   102   100   ar
    11   108   105    1
    12   112   111    2
    13   115   114    1
    14   115   116    2
    15   119   117    1
    16   114   117    1
    17   114   113    1
    18   101    99   ar
    19   100    99   ar
    20   111   113   am
    21   111   110    1
    22   117   118    1
    23   105   106    1
    24   105   104    1
    25   141   140    2
    26   118   120    1
    27    99    98    1
    28   138   139    1
    29    88    86   ar
    30    88    89   ar
    31   106   109   am
    32   106   107    2
    33   104    96   am
    34   109   110    1
    35   139   140    1
    36   139   142    1
    37    86    85   ar
    38    80    81    1
    39   145   147   ar
    40   145   143   ar
    41    89    91   ar
    42    89    87   ar
    43    10     8   ar
    44    10     9   ar
    45    94    95    1
    46    94    82   am
    47    96    95    1
    48    96    97    2
    49    98    95    1
    50    81    82    1
    51    81    84    1
    52    91    93   ar
    53   142   143    1
    54    85    87   ar
    55    85    84    1
    56   158   156    1
    57     8     6   ar
    58   147   146   ar
    59   143   144   ar
    60     9     7   ar
    61    82    83    2
    62   155   156    2
    63   155   154    1
    64    87    90   ar
    65     1     2    1
    66   156   157    1
    67   171   170    2
    68    93    92   ar
    69     6     7   ar
    70     6     5    1
    71   146   144   ar
    72   154   153    1
    73   129   130    1
    74   153   152    1
    75   148   149    1
    76    90    92   ar
    77   170   169    1
    78     2     5    1
    79     2     3    1
    80   162   161    2
    81   152   149    1
    82   163   164    1
    83   163   160    1
    84   164   165    1
    85   159   160    1
    86   159   150   am
    87   149   150    1
    88   161   160    1
    89   130   131    1
    90   130   133    1
    91   174   173   ar
    92     4     3    2
    93     3    11   am
    94   175   173   ar
    95   169   168    1
    96   169   172    1
    97   173   172    1
    98   134   133    1
    99   134   135    1
   100   150   151    2
   101   131   132    2
   102   137   135   ar
   103   165   166    1
   104   166   167    1
   105    67    66    2
   106    79    77    1
   107    75    74    1
   108    75    76    2
   109    11    12    1
   110   135   136   ar
   111    74    77    1
   112    74    73    1
   113    77    78    1
   114    66    73   am
   115    66    65    1
   116    59    58    2
   117    63    61    1
   118    12    15    1
   119    12    13    1
   120    65    64    1
   121    65    68    1
   122    14    13    2
   123    18    20   ar
   124    18    16   ar
   125    62    61    1
   126    60    61    1
   127    60    57    1
   128    58    57    1
   129    15    16    1
   130    20    21   ar
   131    13    23   am
   132    16    17   ar
   133    57    56    1
   134    21    22    1
   135    21    19   ar
   136    68    69    1
   137    17    19   ar
   138    23    24    1
   139    29    27    1
   140    69    70    1
   141    56    51   am
   142    24    27    1
   143    24    25    1
   144    52    51    2
   145    51    50    1
   146    27    28    1
   147    71    70    2
   148    70    72   am
   149    46    45    2
   150    25    30   am
   151    25    26    2
   152    55    53    1
   153    30    31    1
   154    47    48    1
   155    47    44    1
   156    45    44    1
   157    50    53    1
   158    50    49    1
   159    53    54    1
   160    44    43    1
   161    34    31    1
   162    31    32    1
   163    32    35   am
   164    32    33    2
   165    38    37    2
   166    35    36    1
   167    39    36    1
   168    39    40    1
   169    37    36    1
   170    42    40   ar
   171    40    41   ar
