@<TRIPOS>MOLECULE
tmp/3d2zA00.pdb
 155 152 0 0 0
SMALL
GASTEIGER

@<TRIPOS>ATOM
      1  N        -32.2630    5.1110   31.1120 N.3    30  HIS30      -0.1226
      2  CA       -32.7580    4.5300   29.8430 C.3    30  HIS30       0.1752
      3  C        -31.9780    4.9980   28.6040 C.2    30  HIS30       0.2596
      4  O        -31.2780    6.0050   28.6440 O.2    30  HIS30      -0.2718
      5  CB       -34.2240    4.9330   29.5990 C.3    30  HIS30       0.0759
      6  CG       -35.1660    4.5690   30.7030 C.ar   30  HIS30       0.0818
      7  ND1      -35.8250    3.3550   30.7550 N.ar   30  HIS30      -0.2268
      8  CD2      -35.5910    5.2730   31.7790 C.ar   30  HIS30       0.1154
      9  CE1      -36.6070    3.3240   31.8190 C.ar   30  HIS30       0.1986
     10  NE2      -36.4850    4.4760   32.4570 N.ar   30  HIS30      -0.2212
     11  N        -32.1230    4.2720   27.4980 N.am   31  TYR31      -0.1962
     12  CA       -31.8610    4.8460   26.1780 C.3    31  TYR31       0.1771
     13  C        -33.1270    4.8510   25.3060 C.2    31  TYR31       0.2620
     14  O        -34.0180    4.0170   25.4880 O.2    31  TYR31      -0.2715
     15  CB       -30.6550    4.2080   25.4650 C.3    31  TYR31       0.0574
     16  CG       -30.7090    2.7060   25.1750 C.ar   31  TYR31      -0.0198
     17  CD1      -31.8360    2.1140   24.6000 C.ar   31  TYR31      -0.0009
     18  CD2      -29.6010    1.8930   25.4290 C.ar   31  TYR31      -0.0009
     19  CE1      -31.8780    0.7560   24.3260 C.ar   31  TYR31       0.0417
     20  CE2      -29.6310    0.5400   25.1600 C.ar   31  TYR31       0.0417
     21  CZ       -30.7720   -0.0230   24.6070 C.ar   31  TYR31       0.1957
     22  OH       -30.8200   -1.3700   24.3290 O.3    31  TYR31      -0.2866
     23  N        -33.2020    5.7950   24.3700 N.am   32  THR32      -0.1951
     24  CA       -34.4140    6.0020   23.5640 C.3    32  THR32       0.1897
     25  C        -34.5300    5.0680   22.3590 C.2    32  THR32       0.2313
     26  O        -35.6400    4.8060   21.8870 O.2    32  THR32      -0.2863
     27  CB       -34.5400    7.4670   23.0410 C.3    32  THR32       0.1794
     28  OG1      -33.5360    7.7240   22.0470 O.3    32  THR32      -0.2208
     29  CG2      -34.4260    8.4820   24.1750 C.3    32  THR32       0.0378
     30  N        -42.4140   10.0180   24.1060 N.3    43  LEU43      -0.1245
     31  CA       -42.4530   10.2120   25.5490 C.3    43  LEU43       0.1561
     32  C        -43.5690   11.1520   25.9820 C.2    43  LEU43       0.2260
     33  O        -43.8350   11.2870   27.1700 O.2    43  LEU43      -0.2867
     34  CB       -41.1130   10.7240   26.0390 C.3    43  LEU43       0.0270
     35  CG       -39.9310    9.8240   25.7350 C.3    43  LEU43       0.0019
     36  CD1      -38.6460   10.5560   25.9970 C.3    43  LEU43       0.0001
     37  CD2      -40.0080    8.5750   26.5740 C.3    43  LEU43       0.0001
     38  N        -49.1830    6.4580   25.8520 N.3    47  GLN47      -0.1231
     39  CA       -48.7540    5.1170   26.2690 C.3    47  GLN47       0.1698
     40  C        -47.5770    5.1440   27.2510 C.2    47  GLN47       0.2592
     41  O        -47.5750    4.4010   28.2220 O.2    47  GLN47      -0.2718
     42  CB       -48.4580    4.1900   25.0680 C.3    47  GLN47       0.0381
     43  CG       -49.6920    3.7680   24.2130 C.3    47  GLN47       0.0905
     44  CD       -49.7480    4.4680   22.8270 C.2    47  GLN47       0.2608
     45  OE1      -48.8440    4.3030   21.9960 O.2    47  GLN47      -0.2717
     46  NE2      -50.8170    5.2450   22.5820 N.am   47  GLN47      -0.0878
     47  N        -46.5890    6.0010   27.0110 N.am   48  VAL48      -0.1966
     48  CA       -45.4070    6.0770   27.8880 C.3    48  VAL48       0.1727
     49  C        -44.9510    7.5030   28.1440 C.2    48  VAL48       0.2616
     50  O        -45.3320    8.4070   27.4080 O.2    48  VAL48      -0.2715
     51  CB       -44.1900    5.2710   27.3360 C.3    48  VAL48       0.0290
     52  CG1      -44.3450    3.7980   27.6250 C.3    48  VAL48       0.0023
     53  CG2      -43.9880    5.5100   25.8540 C.3    48  VAL48       0.0023
     54  N        -44.1380    7.6860   29.1880 N.am   49  SER49      -0.1950
     55  CA       -43.4980    8.9690   29.4950 C.3    49  SER49       0.1924
     56  C        -42.1980    8.8030   30.2920 C.2    49  SER49       0.2314
     57  O        -41.8350    7.6890   30.6900 O.2    49  SER49      -0.2863
     58  CB       -44.4520    9.8730   30.2710 C.3    49  SER49       0.2116
     59  OG       -44.8060    9.2720   31.5060 O.3    49  SER49      -0.2180
     60  N        -44.7020    7.0740   33.3980 N.3    78  TRP78      -0.1227
     61  CA       -44.7920    5.7180   32.9070 C.3    78  TRP78       0.1737
     62  C        -43.5300    5.2960   32.1490 C.2    78  TRP78       0.2595
     63  O        -43.5100    5.2890   30.9130 O.2    78  TRP78      -0.2718
     64  CB       -46.0080    5.6200   31.9890 C.3    78  TRP78       0.0564
     65  CG       -47.3130    5.5690   32.7090 C.ar   78  TRP78       0.0003
     66  CD1      -47.5120    5.5750   34.0700 C.ar   78  TRP78       0.0946
     67  CD2      -48.6100    5.4420   32.1110 C.ar   78  TRP78       0.0152
     68  NE1      -48.8560    5.4860   34.3480 N.ar   78  TRP78      -0.2442
     69  CE2      -49.5550    5.3980   33.1690 C.ar   78  TRP78       0.0810
     70  CE3      -49.0700    5.3690   30.7850 C.ar   78  TRP78       0.0012
     71  CZ2      -50.9440    5.2840   32.9380 C.ar   78  TRP78       0.0191
     72  CZ3      -50.4430    5.2630   30.5550 C.ar   78  TRP78       0.0001
     73  CH2      -51.3660    5.2180   31.6320 C.ar   78  TRP78       0.0015
     74  N        -42.4810    4.9300   32.8760 N.am   79  HIS79      -0.1961
     75  CA       -41.2170    4.5740   32.2270 C.3    79  HIS79       0.1787
     76  C        -40.6870    3.1900   32.5630 C.2    79  HIS79       0.2620
     77  O        -40.0950    2.5470   31.7060 O.2    79  HIS79      -0.2715
     78  CB       -40.1320    5.6220   32.4990 C.3    79  HIS79       0.0785
     79  CG       -39.6520    5.6610   33.9240 C.ar   79  HIS79       0.0821
     80  ND1      -38.5300    4.9840   34.3500 N.ar   79  HIS79      -0.2267
     81  CD2      -40.1320    6.3160   35.0100 C.ar   79  HIS79       0.1154
     82  CE1      -38.3470    5.2080   35.6390 C.ar   79  HIS79       0.1986
     83  NE2      -39.3030    6.0170   36.0630 N.ar   79  HIS79      -0.2212
     84  N        -40.8940    2.7350   33.7950 N.am   80  ALA80      -0.1963
     85  CA       -40.2980    1.4870   34.2750 C.3    80  ALA80       0.1728
     86  C        -41.0610    0.2190   33.8660 C.2    80  ALA80       0.2617
     87  O        -40.4430   -0.8390   33.6190 O.2    80  ALA80      -0.2715
     88  CB       -40.1500    1.5350   35.7790 C.3    80  ALA80       0.0334
     89  N        -42.3930    0.3240   33.8230 N.am   81  GLY81      -0.1940
     90  CA       -43.2830   -0.8270   33.6020 C.3    81  GLY81       0.2014
     91  C        -43.3190   -1.8590   34.7310 C.2    81  GLY81       0.2638
     92  O        -43.0980   -1.5300   35.9070 O.2    81  GLY81      -0.2714
     93  N        -43.6130   -3.1100   34.3800 N.am   82  ILE82      -0.1977
     94  CA       -43.4600   -4.2150   35.3160 C.3    82  ILE82       0.1596
     95  C        -41.9970   -4.2940   35.7620 C.2    82  ILE82       0.2287
     96  O        -41.1060   -4.5100   34.9420 O.2    82  ILE82      -0.2864
     97  CB       -43.9010   -5.5290   34.6850 C.3    82  ILE82       0.0276
     98  CG1      -45.4130   -5.4910   34.4530 C.3    82  ILE82       0.0022
     99  CG2      -43.5540   -6.6900   35.5850 C.3    82  ILE82       0.0022
    100  CD1      -45.9150   -6.5160   33.4460 C.3    82  ILE82       0.0001
    101  N        -42.4540    2.6310   38.9900 N.3    92  ASN92      -0.1240
    102  CA       -42.8930    3.9650   38.5780 C.3    92  ASN92       0.1653
    103  C        -43.1570    4.8170   39.8060 C.2    92  ASN92       0.2266
    104  O        -42.7350    5.9740   39.8730 O.2    92  ASN92      -0.2867
    105  CB       -44.1380    3.9100   37.6840 C.3    92  ASN92       0.1155
    106  CG       -43.8010    3.6100   36.2270 C.2    92  ASN92       0.2627
    107  OD1      -42.6580    3.7690   35.8060 O.2    92  ASN92      -0.2716
    108  ND2      -44.7970    3.1860   35.4510 N.am   92  ASN92      -0.0877
    109  N        -34.2820    9.5860   30.4000 N.3    99  GLU99      -0.1245
    110  CA       -34.0910    9.0020   29.0680 C.3    99  GLU99       0.1567
    111  C        -32.9380    9.7090   28.3400 C.2    99  GLU99       0.2260
    112  O        -32.9190   10.9500   28.2290 O.2    99  GLU99      -0.2867
    113  CB       -35.3590    9.1460   28.2290 C.3    99  GLU99       0.0388
    114  CG       -36.5060    8.1980   28.5960 C.3    99  GLU99       0.1160
    115  CD       -36.4720    6.8410   27.8670 C.2    99  GLU99       0.3649
    116  OE1      -35.4870    6.5710   27.1380 O.co2  99  GLU99      -0.2457
    117  OE2      -37.4320    6.0420   28.0300 O.co2  99  GLU99      -0.2457
    118  N        -32.4360    0.3840   33.5460 N.3   146  HIS146     -0.1241
    119  CA       -33.7950   -0.1030   33.3270 C.3   146  HIS146      0.1621
    120  C        -33.7660   -1.6320   33.4060 C.2   146  HIS146      0.2264
    121  O        -34.6510   -2.2450   34.0080 O.2   146  HIS146     -0.2867
    122  CB       -34.4050    0.4130   32.0010 C.3   146  HIS146      0.0745
    123  CG       -35.8640    0.0950   31.8300 C.ar  146  HIS146      0.0817
    124  ND1      -36.5470    0.3610   30.6630 N.ar  146  HIS146     -0.2268
    125  CD2      -36.7670   -0.4800   32.6670 C.ar  146  HIS146      0.1154
    126  CE1      -37.8090   -0.0210   30.7930 C.ar  146  HIS146      0.1986
    127  NE2      -37.9680   -0.5380   31.9990 N.ar  146  HIS146     -0.2212
    128  N        -36.8420   -8.3040   30.2050 N.3   153  ARG153     -0.1231
    129  CA       -37.5290   -7.4760   29.1980 C.3   153  ARG153      0.1694
    130  C        -36.6800   -6.3680   28.6000 C.2   153  ARG153      0.2591
    131  O        -36.9060   -5.9800   27.4650 O.2   153  ARG153     -0.2718
    132  CB       -38.7830   -6.8070   29.7800 C.3   153  ARG153      0.0321
    133  CG       -39.7110   -7.6930   30.5800 C.3   153  ARG153      0.0489
    134  CD       -41.0620   -7.0000   30.8550 C.3   153  ARG153      0.2205
    135  NE       -40.9480   -5.7800   31.6560 N.pl3 153  ARG153     -0.0865
    136  CZ       -40.9970   -4.5470   31.1620 C.cat 153  ARG153      0.5346
    137  NH1      -41.1600   -4.3530   29.8610 N.pl3 153  ARG153      0.1354
    138  NH2      -40.8920   -3.4980   31.9760 N.pl3 153  ARG153      0.1354
    139  N        -35.7490   -5.8140   29.3650 N.am  154  LYS154     -0.1980
    140  CA       -35.0200   -4.6370   28.8940 C.3   154  LYS154      0.1596
    141  C        -33.4880   -4.8030   28.8830 C.2   154  LYS154      0.2287
    142  O        -32.9270   -5.5690   29.6870 O.2   154  LYS154     -0.2864
    143  CB       -35.4560   -3.3990   29.6840 C.3   154  LYS154      0.0298
    144  CG       -36.9200   -3.0470   29.4760 C.3   154  LYS154      0.0038
    145  CD       -37.2110   -2.6630   28.0230 C.3   154  LYS154      0.0206
    146  CE       -38.6690   -2.2790   27.8400 C.3   154  LYS154      0.1093
    147  NZ       -38.9110   -1.2950   26.7400 N.3   154  LYS154     -0.1314
    148  N        -31.4940   -1.7020   28.2180 N.3   156  ASP156     -0.1239
    149  CA       -30.9900   -0.3450   28.4660 C.3   156  ASP156      0.1674
    150  C        -30.5810   -0.0330   29.9090 C.2   156  ASP156      0.2266
    151  O        -31.2550   -0.4520   30.8500 O.2   156  ASP156     -0.2867
    152  CB       -31.9650    0.7100   27.9440 C.3   156  ASP156      0.1410
    153  CG       -33.3560    0.5720   28.5140 C.2   156  ASP156      0.3668
    154  OD1      -33.9410    1.6170   28.8640 O.co2 156  ASP156     -0.2456
    155  OD2      -33.8870   -0.5580   28.5970 O.co2 156  ASP156     -0.2456
@<TRIPOS>BOND
     1    26    25    2
     2    45    44    2
     3    28    27    1
     4    25    24    1
     5    46    44   am
     6    44    43    1
     7    27    24    1
     8    27    29    1
     9    24    23    1
    10    30    31    1
    11    43    42    1
    12    19    17   ar
    13    19    21   ar
    14    22    21    1
    15    23    13   am
    16    17    16   ar
    17    21    20   ar
    18    42    39    1
    19    20    18   ar
    20    16    18   ar
    21    16    15    1
    22    13    14    2
    23    13    12    1
    24    15    12    1
    25    31    32    1
    26    31    34    1
    27    35    36    1
    28    35    34    1
    29    35    37    1
    30    38    39    1
    31    53    51    1
    32    32    33    2
    33    12    11    1
    34    39    40    1
    35   147   146    1
    36    47    40   am
    37    47    48    1
    38   116   115   ar
    39    40    41    2
    40    51    52    1
    41    51    48    1
    42    50    49    2
    43   131   130    2
    44    11     3   am
    45   146   145    1
    46   115   117   ar
    47   115   114    1
    48    48    49    1
    49   152   149    1
    50   152   153    1
    51   145   144    1
    52    49    54   am
    53   148   149    1
    54   113   114    1
    55   113   110    1
    56   112   111    2
    57   111   110    1
    58   149   150    1
    59   153   155   ar
    60   153   154   ar
    61   130   129    1
    62   130   139   am
    63     3     4    2
    64     3     2    1
    65   141   140    1
    66   141   142    2
    67   140   139    1
    68   140   143    1
    69   110   109    1
    70    54    55    1
    71   129   132    1
    72   129   128    1
    73   144   143    1
    74    55    58    1
    75    55    56    1
    76     5     2    1
    77     5     6    1
    78   132   133    1
    79     2     1    1
    80   137   136    1
    81   150   151    2
    82    58    59    1
    83    56    57    2
    84    72    70   ar
    85    72    73   ar
    86   133   134    1
    87   124   126   ar
    88   124   123   ar
    89     6     7   ar
    90     6     8   ar
    91     7     9   ar
    92    70    67   ar
    93   126   127   ar
    94   134   135    1
    95    63    62    2
    96   136   135    2
    97   136   138    1
    98    73    71   ar
    99    77    76    2
   100     8    10   ar
   101     9    10   ar
   102   123   122    1
   103   123   125   ar
   104    64    65    1
   105    64    61    1
   106   127   125   ar
   107   122   119    1
   108    67    65   ar
   109    67    69   ar
   110    62    74   am
   111    62    61    1
   112    75    78    1
   113    75    76    1
   114    75    74    1
   115    78    79    1
   116    76    84   am
   117    65    66   ar
   118    61    60    1
   119    71    69   ar
   120    69    68   ar
   121   119   120    1
   122   119   118    1
   123   120   121    2
   124   100    98    1
   125    90    89    1
   126    90    91    1
   127    87    86    2
   128    84    85    1
   129    89    86   am
   130    86    85    1
   131    79    80   ar
   132    79    81   ar
   133    66    68   ar
   134    85    88    1
   135    80    82   ar
   136    93    91   am
   137    93    94    1
   138    98    97    1
   139    97    94    1
   140    97    99    1
   141    91    92    2
   142    96    95    2
   143    81    83   ar
   144    94    95    1
   145   108   106   am
   146    82    83   ar
   147   107   106    2
   148   106   105    1
   149   105   102    1
   150   102   101    1
   151   102   103    1
   152   103   104    2
