@<TRIPOS>MOLECULE
tmp/3d36B00.pdb
 198 187 0 0 0
SMALL
GASTEIGER

@<TRIPOS>ATOM
      1  N         17.2340    8.1440   66.7960 N.3    64  ASP64      -0.1239
      2  CA        17.3830    9.6130   66.8980 C.3    64  ASP64       0.1674
      3  C         16.9640   10.1760   68.2650 C.2    64  ASP64       0.2266
      4  O         17.5250   11.1740   68.7240 O.2    64  ASP64      -0.2867
      5  CB        16.5230   10.3250   65.8430 C.3    64  ASP64       0.1410
      6  CG        17.0600   10.1960   64.4210 C.2    64  ASP64       0.3668
      7  OD1       18.2930   10.1830   64.1840 O.co2  64  ASP64      -0.2456
      8  OD2       16.2060   10.1510   63.5130 O.co2  64  ASP64      -0.2456
      9  N         23.9850   11.1520   67.5500 N.3   125  ASN125     -0.1225
     10  CA        23.3860   11.6920   66.3290 C.3   125  ASN125      0.1785
     11  C         24.4140   12.3470   65.4040 C.2   125  ASN125      0.2597
     12  O         24.3550   12.1640   64.1900 O.2   125  ASN125     -0.2718
     13  CB        22.2340   12.6500   66.6540 C.3   125  ASN125      0.1169
     14  CG        21.0210   11.9310   67.2260 C.2   125  ASN125      0.2627
     15  OD1       21.0450   10.7190   67.4370 O.2   125  ASN125     -0.2716
     16  ND2       19.9540   12.6720   67.4640 N.am  125  ASN125     -0.0877
     17  N         25.3530   13.0950   65.9850 N.am  126  VAL126     -0.1980
     18  CA        26.4240   13.7410   65.2150 C.3   126  VAL126      0.1595
     19  C         27.4140   12.7150   64.6390 C.2   126  VAL126      0.2287
     20  O         27.7800   12.7990   63.4650 O.2   126  VAL126     -0.2864
     21  CB        27.1920   14.8130   66.0490 C.3   126  VAL126      0.0276
     22  CG1       28.2600   15.4910   65.2000 C.3   126  VAL126      0.0022
     23  CG2       26.2330   15.8580   66.5950 C.3   126  VAL126      0.0022
     24  N         25.7950   10.5290   61.8460 N.3   129  ASN129     -0.1225
     25  CA        25.7990   11.3220   60.6030 C.3   129  ASN129      0.1785
     26  C         27.1620   11.3410   59.9200 C.2   129  ASN129      0.2597
     27  O         27.2470   11.2660   58.6920 O.2   129  ASN129     -0.2718
     28  CB        25.3820   12.7750   60.8600 C.3   129  ASN129      0.1169
     29  CG        23.8950   12.9290   61.0980 C.2   129  ASN129      0.2627
     30  OD1       23.0940   12.0200   60.8260 O.2   129  ASN129     -0.2716
     31  ND2       23.5140   14.0720   61.6390 N.am  129  ASN129     -0.0877
     32  N         28.2160   11.4900   60.7210 N.am  130  ALA130     -0.1979
     33  CA        29.5870   11.4870   60.2140 C.3   130  ALA130      0.1597
     34  C         29.9190   10.1800   59.4880 C.2   130  ALA130      0.2287
     35  O         30.4560   10.2030   58.3830 O.2   130  ALA130     -0.2864
     36  CB        30.5730   11.7520   61.3420 C.3   130  ALA130      0.0319
     37  N         27.7150    8.0520   58.2820 N.3   132  GLU132     -0.1231
     38  CA        26.8010    7.9490   57.1460 C.3   132  GLU132      0.1699
     39  C         27.2320    8.8120   55.9490 C.2   132  GLU132      0.2592
     40  O         26.8530    8.5360   54.8060 O.2   132  GLU132     -0.2718
     41  CB        25.3700    8.2630   57.5880 C.3   132  GLU132      0.0402
     42  CG        24.7470    7.1130   58.4090 C.3   132  GLU132      0.1161
     43  CD        23.4420    7.4840   59.0940 C.2   132  GLU132      0.3649
     44  OE1       23.0780    8.6810   59.1400 O.co2 132  GLU132     -0.2457
     45  OE2       22.7770    6.5660   59.6020 O.co2 132  GLU132     -0.2457
     46  N         28.0330    9.8410   56.2170 N.am  133  ALA133     -0.1980
     47  CA        28.6020   10.6770   55.1560 C.3   133  ALA133      0.1597
     48  C         29.7820    9.9950   54.4590 C.2   133  ALA133      0.2287
     49  O         30.2660   10.4770   53.4230 O.2   133  ALA133     -0.2864
     50  CB        29.0180   12.0440   55.7110 C.3   133  ALA133      0.0319
     51  N         34.6790   14.3350   59.7380 N.3   157  ASP157     -0.1239
     52  CA        34.6320   13.2360   58.7800 C.3   157  ASP157      0.1674
     53  C         35.2630   13.6600   57.4510 C.2   157  ASP157      0.2266
     54  O         35.4360   14.8560   57.1900 O.2   157  ASP157     -0.2867
     55  CB        33.1880   12.7200   58.5990 C.3   157  ASP157      0.1410
     56  CG        32.2680   13.7260   57.9170 C.2   157  ASP157      0.3668
     57  OD1       32.4760   14.0370   56.7240 O.co2 157  ASP157     -0.2456
     58  OD2       31.3000   14.1820   58.5650 O.co2 157  ASP157     -0.2456
     59  N         31.0270   13.1250   52.2490 N.3   160  VAL160     -0.1231
     60  CA        30.4200   13.8050   51.0950 C.3   160  VAL160      0.1692
     61  C         30.2650   15.3220   51.2500 C.2   160  VAL160      0.2593
     62  O         30.1490   16.0360   50.2560 O.2   160  VAL160     -0.2718
     63  CB        29.0470   13.1770   50.6870 C.3   160  VAL160      0.0266
     64  CG1       29.2200   11.7150   50.2380 C.3   160  VAL160      0.0020
     65  CG2       28.0130   13.2900   51.8220 C.3   160  VAL160      0.0020
     66  N         30.2480   15.8120   52.4890 N.am  161  GLY161     -0.1942
     67  CA        30.1000   17.2480   52.7380 C.3   161  GLY161      0.2014
     68  C         28.7130   17.7540   52.3740 C.2   161  GLY161      0.2638
     69  O         27.8100   16.9620   52.0690 O.2   161  GLY161     -0.2714
     70  N         28.5520   19.0740   52.4070 N.am  162  MET162     -0.1976
     71  CA        27.2780   19.7290   52.1410 C.3   162  MET162      0.1605
     72  C         27.5000   20.9820   51.3110 C.2   162  MET162      0.2287
     73  O         28.5340   21.6450   51.4380 O.2   162  MET162     -0.2864
     74  CB        26.5900   20.1250   53.4560 C.3   162  MET162      0.0413
     75  CG        25.9320   18.9880   54.2170 C.3   162  MET162      0.0598
     76  SD        25.3780   19.4980   55.8680 S.3   162  MET162     -0.1393
     77  CE        26.8700   19.2430   56.8270 C.3   162  MET162      0.0692
     78  N         22.2620   22.9750   51.6510 N.3   166  GLN166     -0.1245
     79  CA        22.0410   21.8440   52.5510 C.3   166  GLN166      0.1566
     80  C         22.4550   22.1550   53.9930 C.2   166  GLN166      0.2260
     81  O         21.7450   21.7890   54.9280 O.2   166  GLN166     -0.2867
     82  CB        22.7430   20.5850   52.0350 C.3   166  GLN166      0.0367
     83  CG        22.2190   20.1060   50.6830 C.3   166  GLN166      0.0905
     84  CD        23.1280   19.0820   50.0390 C.2   166  GLN166      0.2608
     85  OE1       24.3440   19.1120   50.2300 O.2   166  GLN166     -0.2717
     86  NE2       22.5440   18.1730   49.2540 N.am  166  GLN166     -0.0878
     87  N         20.1950   22.0000   57.4130 N.3   170  LEU170     -0.1231
     88  CA        20.5280   20.9770   58.4120 C.3   170  LEU170      0.1693
     89  C         19.8050   21.3110   59.7210 C.2   170  LEU170      0.2592
     90  O         19.9030   22.4320   60.2110 O.2   170  LEU170     -0.2718
     91  CB        22.0540   20.8990   58.6250 C.3   170  LEU170      0.0284
     92  CG        22.6390   19.9780   59.7130 C.3   170  LEU170      0.0019
     93  CD1       24.0640   19.5610   59.3750 C.3   170  LEU170      0.0001
     94  CD2       22.6090   20.6640   61.0900 C.3   170  LEU170      0.0001
     95  N         19.0680   20.3410   60.2610 N.am  171  GLY171     -0.1957
     96  CA        18.3210   20.5380   61.5070 C.3   171  GLY171      0.1869
     97  C         16.8650   20.9360   61.3160 C.2   171  GLY171      0.2309
     98  O         16.0790   20.8620   62.2600 O.2   171  GLY171     -0.2863
     99  N         14.0670   17.3150   56.9970 N.3   175  PHE175     -0.1227
    100  CA        15.0010   17.5190   55.8870 C.3   175  PHE175      0.1736
    101  C         16.1090   16.4770   55.9320 C.2   175  PHE175      0.2596
    102  O         16.8650   16.4000   56.9010 O.2   175  PHE175     -0.2718
    103  CB        15.6160   18.9260   55.8460 C.3   175  PHE175      0.0547
    104  CG        16.7940   19.0300   54.9010 C.ar  175  PHE175     -0.0202
    105  CD1       16.5970   19.0050   53.5160 C.ar  175  PHE175     -0.0042
    106  CD2       18.0960   19.1150   55.3900 C.ar  175  PHE175     -0.0042
    107  CE1       17.6780   19.0850   52.6290 C.ar  175  PHE175     -0.0003
    108  CE2       19.1910   19.1940   54.5130 C.ar  175  PHE175     -0.0003
    109  CZ        18.9780   19.1790   53.1240 C.ar  175  PHE175     -0.0000
    110  N         16.2000   15.6920   54.8630 N.am  176  THR176     -0.1939
    111  CA        17.1930   14.6310   54.7500 C.3   176  THR176      0.2028
    112  C         17.6170   14.4000   53.2930 C.2   176  THR176      0.2643
    113  O         16.8040   14.4850   52.3760 O.2   176  THR176     -0.2714
    114  CB        16.7130   13.2910   55.4050 C.3   176  THR176      0.1808
    115  OG1       17.7410   12.3010   55.2800 O.3   176  THR176     -0.2208
    116  CG2       15.4160   12.7510   54.7720 C.3   176  THR176      0.0379
    117  N         18.9060   14.1260   53.1020 N.am  177  THR177     -0.1936
    118  CA        19.4340   13.7080   51.8050 C.3   177  THR177      0.2028
    119  C         19.5060   12.1800   51.7040 C.2   177  THR177      0.2642
    120  O         20.0630   11.6470   50.7460 O.2   177  THR177     -0.2714
    121  CB        20.8560   14.2530   51.5710 C.3   177  THR177      0.1808
    122  OG1       21.6900   13.9040   52.6870 O.3   177  THR177     -0.2208
    123  CG2       20.8470   15.7660   51.3860 C.3   177  THR177      0.0379
    124  N         18.9500   11.4770   52.6890 N.am  178  LYS178     -0.1977
    125  CA        19.1370   10.0300   52.7900 C.3   178  LYS178      0.1596
    126  C         17.9280    9.2190   52.3090 C.2   178  LYS178      0.2287
    127  O         17.8490    8.0050   52.5280 O.2   178  LYS178     -0.2864
    128  CB        19.5660    9.6410   54.2160 C.3   178  LYS178      0.0298
    129  CG        20.9300   10.2290   54.5920 C.3   178  LYS178      0.0038
    130  CD        21.2350   10.1210   56.0830 C.3   178  LYS178      0.0206
    131  CE        22.5520   10.8230   56.3910 C.3   178  LYS178      0.1093
    132  NZ        22.7840   11.0200   57.8570 N.3   178  LYS178     -0.1314
    133  N         15.5750    5.9560   54.0400 N.3   181  LYS181     -0.1231
    134  CA        16.1490    5.6440   55.3420 C.3   181  LYS181      0.1693
    135  C         16.3910    6.8810   56.2160 C.2   181  LYS181      0.2593
    136  O         16.6720    6.7450   57.4010 O.2   181  LYS181     -0.2718
    137  CB        17.4310    4.8090   55.1970 C.3   181  LYS181      0.0285
    138  CG        17.1610    3.3110   54.9450 C.3   181  LYS181      0.0035
    139  CD        18.4490    2.4920   54.9350 C.3   181  LYS181      0.0206
    140  CE        18.1610    1.0300   54.6170 C.3   181  LYS181      0.1093
    141  NZ        19.4050    0.2020   54.5750 N.3   181  LYS181     -0.1314
    142  N         16.2650    8.0760   55.6330 N.am  182  GLY182     -0.1942
    143  CA        16.4990    9.3300   56.3600 C.3   182  GLY182      0.2014
    144  C         15.3130    9.7260   57.2290 C.2   182  GLY182      0.2640
    145  O         14.1690    9.3770   56.9270 O.2   182  GLY182     -0.2714
    146  N         15.5860   10.4380   58.3160 N.am  183  THR183     -0.1936
    147  CA        14.5180   10.9870   59.1500 C.3   183  THR183      0.2028
    148  C         14.5230   12.5040   59.0990 C.2   183  THR183      0.2643
    149  O         13.4660   13.1250   59.0600 O.2   183  THR183     -0.2714
    150  CB        14.5990   10.5340   60.6320 C.3   183  THR183      0.1808
    151  OG1       15.7290   11.1430   61.2730 O.3   183  THR183     -0.2208
    152  CG2       14.6850    9.0020   60.7450 C.3   183  THR183      0.0379
    153  N         15.7170   13.0930   59.0980 N.am  184  GLY184     -0.1939
    154  CA        15.8570   14.5400   59.1800 C.3   184  GLY184      0.2014
    155  C         15.4620   15.0580   60.5530 C.2   184  GLY184      0.2639
    156  O         14.9830   16.1860   60.6820 O.2   184  GLY184     -0.2714
    157  N         15.6510   14.2210   61.5720 N.am  185  LEU185     -0.1963
    158  CA        15.2530   14.5630   62.9390 C.3   185  LEU185      0.1728
    159  C         16.4250   14.4760   63.9240 C.2   185  LEU185      0.2617
    160  O         16.3050   14.8970   65.0720 O.2   185  LEU185     -0.2715
    161  CB        14.0710   13.6920   63.3930 C.3   185  LEU185      0.0311
    162  CG        12.7590   13.8170   62.5980 C.3   185  LEU185      0.0022
    163  CD1       11.7950   12.6680   62.8820 C.3   185  LEU185      0.0001
    164  CD2       12.0690   15.1800   62.8260 C.3   185  LEU185      0.0001
    165  N         17.5540   13.9410   63.4670 N.am  186  GLY186     -0.1940
    166  CA        18.7360   13.7770   64.3140 C.3   186  GLY186      0.2014
    167  C         19.3640   15.0730   64.7930 C.2   186  GLY186      0.2639
    168  O         19.6090   15.2530   65.9950 O.2   186  GLY186     -0.2714
    169  N         19.6310   15.9820   63.8560 N.am  187  MET187     -0.1963
    170  CA        20.2880   17.2440   64.1900 C.3   187  MET187      0.1736
    171  C         19.3640   18.2150   64.9040 C.2   187  MET187      0.2616
    172  O         19.8230   19.0190   65.7140 O.2   187  MET187     -0.2715
    173  CB        20.9020   17.9090   62.9450 C.3   187  MET187      0.0427
    174  CG        22.1520   17.1930   62.4420 C.3   187  MET187      0.0599
    175  SD        23.3570   16.8890   63.7680 S.3   187  MET187     -0.1393
    176  CE        24.2360   18.4370   63.7860 C.3   187  MET187      0.0692
    177  N         18.0710   18.1490   64.5890 N.am  188  MET188     -0.1977
    178  CA        17.0680   18.9460   65.2910 C.3   188  MET188      0.1605
    179  C         17.2440   18.7480   66.7980 C.2   188  MET188      0.2287
    180  O         17.2920   19.7050   67.5700 O.2   188  MET188     -0.2864
    181  CB        15.6590   18.5230   64.8660 C.3   188  MET188      0.0413
    182  CG        14.5450   19.2500   65.6110 C.3   188  MET188      0.0598
    183  SD        12.9160   18.5360   65.3460 S.3   188  MET188     -0.1393
    184  CE        13.1060   16.9390   66.1670 C.3   188  MET188      0.0692
    185  N         33.1110   17.1630   56.6030 N.3   211  THR211     -0.1218
    186  CA        32.3860   18.0310   57.5160 C.3   211  THR211      0.1862
    187  C         33.0580   17.9890   58.8810 C.2   211  THR211      0.2287
    188  O         33.5000   16.9290   59.3360 O.2   211  THR211     -0.2866
    189  CB        30.9060   17.5780   57.6490 C.3   211  THR211      0.1770
    190  OG1       30.2690   17.6450   56.3680 O.3   211  THR211     -0.2211
    191  CG2       30.1290   18.4600   58.6510 C.3   211  THR211      0.0375
    192  N         32.0430   19.1880   62.7460 N.3   213  VAL213     -0.1245
    193  CA        31.0850   19.7280   63.7050 C.3   213  VAL213      0.1561
    194  C         31.8180   20.0450   65.0050 C.2   213  VAL213      0.2260
    195  O         32.4550   19.1690   65.5980 O.2   213  VAL213     -0.2867
    196  CB        29.9160   18.7330   63.9880 C.3   213  VAL213      0.0252
    197  CG1       28.8930   19.3630   64.9330 C.3   213  VAL213      0.0019
    198  CG2       29.2380   18.3040   62.6920 C.3   213  VAL213      0.0019
@<TRIPOS>BOND
     1    86    84   am
     2    84    85    2
     3    84    83    1
     4    64    63    1
     5    62    61    2
     6    83    82    1
     7    63    60    1
     8    63    65    1
     9   120   119    2
    10    60    61    1
    11    60    59    1
    12    61    66   am
    13    72    73    2
    14    72    71    1
    15   123   121    1
    16   121   118    1
    17   121   122    1
    18    78    79    1
    19   119   118    1
    20   119   124   am
    21   118   117    1
    22    82    79    1
    23    69    68    2
    24    71    70    1
    25    71    74    1
    26   126   127    2
    27   126   125    1
    28    68    70   am
    29    68    67    1
    30   113   112    2
    31    66    67    1
    32    79    80    1
    33   107   109   ar
    34   107   105   ar
    35   124   125    1
    36   125   128    1
    37   117   112   am
    38   109   108   ar
    39   112   111    1
    40    49    48    2
    41    74    75    1
    42   105   104   ar
    43    80    81    2
    44   133   134    1
    45   128   129    1
    46    75    76    1
    47    48    47    1
    48   108   106   ar
    49   141   140    1
    50   129   130    1
    51   140   139    1
    52   111   110    1
    53   111   114    1
    54   116   114    1
    55    40    39    2
    56   110   101   am
    57   104   106   ar
    58   104   103    1
    59   139   138    1
    60   138   137    1
    61    47    50    1
    62    47    46    1
    63   137   134    1
    64   115   114    1
    65   134   135    1
    66   142   135   am
    67   142   143    1
    68   103   100    1
    69    76    77    1
    70   100   101    1
    71   100    99    1
    72   101   102    2
    73    39    46   am
    74    39    38    1
    75   130   131    1
    76   135   136    2
    77   143   144    1
    78   190   189    1
    79   131   132    1
    80   185   186    1
    81    57    56   ar
    82   145   144    2
    83    38    41    1
    84    38    37    1
    85    54    53    2
    86   144   146   am
    87    87    88    1
    88    53    52    1
    89   186   189    1
    90   186   187    1
    91    41    42    1
    92   189   191    1
    93    56    58   ar
    94    56    55    1
    95   146   147    1
    96    35    34    2
    97    42    43    1
    98    88    91    1
    99    88    89    1
   100    55    52    1
   101    91    92    1
   102    27    26    2
   103    52    51    1
   104   187   188    2
   105   149   148    2
   106    43    44   ar
   107    43    45   ar
   108   153   148   am
   109   153   154    1
   110   148   147    1
   111   147   150    1
   112   154   155    1
   113    93    92    1
   114    34    33    1
   115    92    94    1
   116    89    90    2
   117    89    95   am
   118    26    25    1
   119    26    32   am
   120    33    32    1
   121    33    36    1
   122    95    96    1
   123   155   156    2
   124   155   157   am
   125    25    28    1
   126    25    24    1
   127   150   152    1
   128   150   151    1
   129    30    29    2
   130    28    29    1
   131    29    31   am
   132    97    96    1
   133    97    98    2
   134   157   158    1
   135   174   173    1
   136   174   175    1
   137   162   164    1
   138   162   163    1
   139   162   161    1
   140   198   196    1
   141   192   193    1
   142   158   161    1
   143   158   159    1
   144   173   170    1
   145    20    19    2
   146   165   159   am
   147   165   166    1
   148     8     6   ar
   149   193   196    1
   150   193   194    1
   151   175   176    1
   152   169   170    1
   153   169   167   am
   154   159   160    2
   155   196   197    1
   156     7     6   ar
   157    12    11    2
   158   170   171    1
   159   166   167    1
   160     6     5    1
   161   177   171   am
   162   177   178    1
   163    19    18    1
   164   167   168    2
   165   181   178    1
   166   181   182    1
   167   171   172    2
   168   194   195    2
   169    22    21    1
   170    18    17    1
   171    18    21    1
   172   178   179    1
   173   183   182    1
   174   183   184    1
   175    11    17   am
   176    11    10    1
   177     5     2    1
   178    21    23    1
   179    10    13    1
   180    10     9    1
   181    13    14    1
   182     1     2    1
   183   179   180    2
   184     2     3    1
   185    14    15    2
   186    14    16   am
   187     3     4    2
