@<TRIPOS>MOLECULE
tmp/3d38A05.pdb
 92 86 0 0 0
SMALL
GASTEIGER

@<TRIPOS>ATOM
      1  N        -14.0890  132.6190   85.6890 N.3    21  GLU21      -0.1245
      2  CA       -13.3270  132.5840   86.9250 C.3    21  GLU21       0.1567
      3  C        -14.1800  133.0030   88.1020 C.2    21  GLU21       0.2260
      4  O        -15.1140  133.8040   87.9570 O.2    21  GLU21      -0.2867
      5  CB       -12.1450  133.5220   86.8530 C.3    21  GLU21       0.0388
      6  CG       -11.1700  133.2690   85.7320 C.3    21  GLU21       0.1160
      7  CD       -10.0380  134.2940   85.7360 C.2    21  GLU21       0.3649
      8  OE1       -9.1080  134.1630   86.5760 O.co2  21  GLU21      -0.2457
      9  OE2      -10.1020  135.2380   84.9060 O.co2  21  GLU21      -0.2457
     10  N        -13.2500  134.3190   91.9770 N.3    23  LEU23      -0.1245
     11  CA       -12.0670  134.7500   92.7260 C.3    23  LEU23       0.1561
     12  C        -12.4200  135.4200   94.0400 C.2    23  LEU23       0.2260
     13  O        -13.4540  136.0640   94.1220 O.2    23  LEU23      -0.2867
     14  CB       -11.3030  135.7690   91.9030 C.3    23  LEU23       0.0270
     15  CG       -10.6870  135.2990   90.5990 C.3    23  LEU23       0.0019
     16  CD1      -10.6360  136.4610   89.6070 C.3    23  LEU23       0.0001
     17  CD2       -9.3120  134.6870   90.8570 C.3    23  LEU23       0.0001
     18  N         -6.7370  137.6410   95.9080 N.3    28  VAL28      -0.1245
     19  CA        -6.1540  138.2430   94.7160 C.3    28  VAL28       0.1561
     20  C         -5.1940  139.3370   95.1380 C.2    28  VAL28       0.2260
     21  O         -4.0110  139.2990   94.7820 O.2    28  VAL28      -0.2867
     22  CB        -7.2030  138.8590   93.7680 C.3    28  VAL28       0.0252
     23  CG1       -6.5450  139.2600   92.4630 C.3    28  VAL28       0.0019
     24  CG2       -8.3270  137.8890   93.5100 C.3    28  VAL28       0.0019
     25  N         -1.9760  138.2870   96.4340 N.3    31  LYS31      -0.1231
     26  CA        -1.0190  137.7620   95.4970 C.3    31  LYS31       0.1693
     27  C         -0.5140  138.9070   94.6790 C.2    31  LYS31       0.2591
     28  O          0.6130  138.8750   94.2010 O.2    31  LYS31      -0.2718
     29  CB        -1.6510  136.7210   94.5910 C.3    31  LYS31       0.0285
     30  CG        -1.9780  135.4250   95.2870 C.3    31  LYS31       0.0035
     31  CD        -2.4790  134.4050   94.2810 C.3    31  LYS31       0.0206
     32  CE        -3.4620  133.4310   94.9200 C.3    31  LYS31       0.1093
     33  NZ        -3.6150  132.2010   94.1020 N.3    31  LYS31      -0.1314
     34  N         -1.3530  139.9210   94.5130 N.am   32  LYS32      -0.1980
     35  CA        -0.9510  141.1100   93.7780 C.3    32  LYS32       0.1596
     36  C          0.1950  141.8320   94.4750 C.2    32  LYS32       0.2287
     37  O          1.0580  142.4430   93.8300 O.2    32  LYS32      -0.2864
     38  CB        -2.1260  142.0500   93.5960 C.3    32  LYS32       0.0298
     39  CG        -2.8050  141.8610   92.2850 C.3    32  LYS32       0.0038
     40  CD        -3.9420  142.8340   92.1510 C.3    32  LYS32       0.0206
     41  CE        -4.6350  142.6820   90.8120 C.3    32  LYS32       0.1093
     42  NZ        -5.4700  143.8810   90.5450 N.3    32  LYS32      -0.1314
     43  N         -2.3820  127.7030   88.2020 N.3   240  LEU240     -0.1231
     44  CA        -2.7100  129.0310   87.6990 C.3   240  LEU240      0.1693
     45  C         -3.7330  129.6800   88.6090 C.2   240  LEU240      0.2592
     46  O         -4.0290  130.8770   88.4700 O.2   240  LEU240     -0.2718
     47  CB        -3.2540  128.9890   86.2710 C.3   240  LEU240      0.0284
     48  CG        -2.5280  128.1630   85.2120 C.3   240  LEU240      0.0019
     49  CD1       -2.9100  128.6490   83.8390 C.3   240  LEU240      0.0001
     50  CD2       -1.0230  128.1920   85.3740 C.3   240  LEU240      0.0001
     51  N         -4.2740  128.9000   89.5460 N.am  241  GLY241     -0.1957
     52  CA        -5.3190  129.4080   90.4560 C.3   241  GLY241      0.1869
     53  C         -6.5600  129.7810   89.6570 C.2   241  GLY241      0.2309
     54  O         -6.9570  130.9460   89.5800 O.2   241  GLY241     -0.2863
     55  N          0.2470  130.4150   91.2790 N.3   311  GLY311     -0.1210
     56  CA        -1.1050  130.7010   91.7140 C.3   311  GLY311      0.1956
     57  C         -1.8210  131.7680   90.9140 C.2   311  GLY311      0.2612
     58  O         -2.9500  132.1250   91.2300 O.2   311  GLY311     -0.2717
     59  N         -1.1900  132.2890   89.8710 N.am  312  VAL312     -0.1965
     60  CA        -1.8520  133.3230   89.0680 C.3   312  VAL312      0.1727
     61  C         -1.9330  132.9300   87.5890 C.2   312  VAL312      0.2617
     62  O         -1.0190  132.2740   87.0570 O.2   312  VAL312     -0.2715
     63  CB        -1.1860  134.7040   89.2350 C.3   312  VAL312      0.0290
     64  CG1       -2.0160  135.7650   88.5410 C.3   312  VAL312      0.0023
     65  CG2       -1.0090  135.0340   90.7150 C.3   312  VAL312      0.0023
     66  N         -3.0340  133.3100   86.9380 N.am  313  THR313     -0.1937
     67  CA        -3.2670  132.8690   85.5680 C.3   313  THR313      0.2028
     68  C         -2.1530  133.2970   84.5920 C.2   313  THR313      0.2642
     69  O         -1.7550  132.5250   83.7160 O.2   313  THR313     -0.2714
     70  CB        -4.6930  133.2170   85.0660 C.3   313  THR313      0.1808
     71  OG1       -4.8910  134.6350   85.0350 O.3   313  THR313     -0.2208
     72  CG2       -5.7130  132.5940   85.9740 C.3   313  THR313      0.0379
     73  N         -1.6610  134.5290   84.7470 N.am  314  LYS314     -0.1977
     74  CA        -0.4660  135.0100   84.0500 C.3   314  LYS314      0.1596
     75  C          0.5500  135.2650   85.1360 C.2   314  LYS314      0.2287
     76  O          0.2130  135.8840   86.1410 O.2   314  LYS314     -0.2864
     77  CB        -0.7390  136.3390   83.3630 C.3   314  LYS314      0.0298
     78  CG        -1.8120  136.3170   82.3020 C.3   314  LYS314      0.0038
     79  CD        -2.0030  137.7070   81.6890 C.3   314  LYS314      0.0206
     80  CE        -2.5340  137.6340   80.2550 C.3   314  LYS314      0.1093
     81  NZ        -2.8930  138.9930   79.7420 N.3   314  LYS314     -0.1314
     82  N          1.0290  138.5000   87.2650 N.3   317  PHE317     -0.1241
     83  CA        -0.0790  139.2990   86.7740 C.3   317  PHE317      0.1605
     84  C          0.2390  139.9880   85.4710 C.2   317  PHE317      0.2264
     85  O         -0.3790  140.9850   85.1420 O.2   317  PHE317     -0.2867
     86  CB        -0.5170  140.3250   87.8060 C.3   317  PHE317      0.0534
     87  CG        -1.2390  139.7280   88.9650 C.ar  317  PHE317     -0.0203
     88  CD1       -0.5440  139.1030   89.9830 C.ar  317  PHE317     -0.0042
     89  CD2       -2.6110  139.7830   89.0400 C.ar  317  PHE317     -0.0042
     90  CE1       -1.2060  138.5490   91.0570 C.ar  317  PHE317     -0.0003
     91  CE2       -3.2750  139.2240   90.1080 C.ar  317  PHE317     -0.0003
     92  CZ        -2.5690  138.6050   91.1170 C.ar  317  PHE317     -0.0000
@<TRIPOS>BOND
     1    81    80    1
     2    80    79    1
     3    79    78    1
     4    78    77    1
     5    77    74    1
     6    69    68    2
     7    49    48    1
     8    74    73    1
     9    74    75    1
    10    68    73   am
    11    68    67    1
    12     9     7   ar
    13    71    70    1
    14    70    67    1
    15    70    72    1
    16    75    76    2
    17    85    84    2
    18    48    50    1
    19    48    47    1
    20    84    83    1
    21    67    66    1
    22     1     2    1
    23     6     7    1
    24     6     5    1
    25     7     8   ar
    26    47    44    1
    27    83    82    1
    28    83    86    1
    29     5     2    1
    30     2     3    1
    31    66    61   am
    32    62    61    2
    33    61    60    1
    34    44    43    1
    35    44    45    1
    36    86    87    1
    37     4     3    2
    38    46    45    2
    39    64    63    1
    40    45    51   am
    41    87    89   ar
    42    87    88   ar
    43    89    91   ar
    44    60    63    1
    45    60    59    1
    46    63    65    1
    47    51    52    1
    48    54    53    2
    49    16    15    1
    50    53    52    1
    51    59    57   am
    52    88    90   ar
    53    91    92   ar
    54    42    41    1
    55    15    17    1
    56    15    14    1
    57    41    40    1
    58    57    58    2
    59    57    56    1
    60    90    92   ar
    61    55    56    1
    62    14    11    1
    63    10    11    1
    64    40    39    1
    65    39    38    1
    66    23    22    1
    67    11    12    1
    68    24    22    1
    69    38    35    1
    70    22    19    1
    71    35    36    1
    72    35    34    1
    73    37    36    2
    74    12    13    2
    75    33    32    1
    76    28    27    2
    77    31    32    1
    78    31    30    1
    79    34    27   am
    80    29    30    1
    81    29    26    1
    82    27    26    1
    83    19    20    1
    84    19    18    1
    85    21    20    2
    86    26    25    1
