@<TRIPOS>MOLECULE
tmp/3d3dB01.pdb
 191 186 0 0 0
SMALL
GASTEIGER

@<TRIPOS>ATOM
      1  N         84.9280   86.9210  112.7710 N.3    19  GLU19      -0.1245
      2  CA        84.3440   88.2310  113.0040 C.3    19  GLU19       0.1567
      3  C         83.3480   88.2710  114.1580 C.2    19  GLU19       0.2260
      4  O         82.6170   89.2410  114.3250 O.2    19  GLU19      -0.2867
      5  CB        83.6790   88.7150  111.7250 C.3    19  GLU19       0.0388
      6  CG        84.6560   89.1510  110.6700 C.3    19  GLU19       0.1160
      7  CD        85.3850   90.4030  111.0710 C.2    19  GLU19       0.3649
      8  OE1       84.7100   91.4080  111.3850 O.co2  19  GLU19      -0.2457
      9  OE2       86.6310   90.3820  111.0760 O.co2  19  GLU19      -0.2457
     10  N         86.8690  105.1130  119.7220 N.3    59  LEU59      -0.1231
     11  CA        86.7900  104.3450  118.4710 C.3    59  LEU59       0.1693
     12  C         85.3710  103.9280  118.0460 C.2    59  LEU59       0.2592
     13  O         84.5910  103.4080  118.8500 O.2    59  LEU59      -0.2718
     14  CB        87.6410  103.0750  118.5950 C.3    59  LEU59       0.0284
     15  CG        87.3110  101.9420  117.6160 C.3    59  LEU59       0.0019
     16  CD1       88.1030  102.0710  116.3130 C.3    59  LEU59       0.0001
     17  CD2       87.6340  100.6300  118.2980 C.3    59  LEU59       0.0001
     18  N         85.0660  104.1260  116.7670 N.am   60  LYS60      -0.1966
     19  CA        83.7680  103.7720  116.2090 C.3    60  LYS60       0.1728
     20  C         83.9810  102.9340  114.9410 C.2    60  LYS60       0.2616
     21  O         85.0130  103.0440  114.2740 O.2    60  LYS60      -0.2715
     22  CB        82.9860  105.0490  115.8690 C.3    60  LYS60       0.0311
     23  CG        83.1310  106.1670  116.9000 C.3    60  LYS60       0.0038
     24  CD        82.4070  107.4550  116.4650 C.3    60  LYS60       0.0206
     25  CE        82.6850  108.6250  117.4170 C.3    60  LYS60       0.1093
     26  NZ        82.0010  109.8790  116.9840 N.3    60  LYS60      -0.1314
     27  N         83.0020  102.0960  114.6160 N.am   61  SER61      -0.1950
     28  CA        83.0710  101.2560  113.4270 C.3    61  SER61       0.1924
     29  C         81.6580  101.1560  112.8830 C.2    61  SER61       0.2314
     30  O         80.6970  101.2380  113.6510 O.2    61  SER61      -0.2863
     31  CB        83.5980   99.8590  113.7920 C.3    61  SER61       0.2116
     32  OG        83.9380   99.0980  112.6400 O.3    61  SER61      -0.2180
     33  N         80.9750   91.5020  108.7390 N.3    68  GLN68      -0.1231
     34  CA        81.2070   92.8420  109.2790 C.3    68  GLN68       0.1698
     35  C         81.7160   93.8570  108.2460 C.2    68  GLN68       0.2592
     36  O         82.7610   94.4730  108.4180 O.2    68  GLN68      -0.2718
     37  CB        82.1980   92.7330  110.4330 C.3    68  GLN68       0.0381
     38  CG        81.7090   91.8500  111.5590 C.3    68  GLN68       0.0905
     39  CD        80.6360   92.5250  112.3980 C.2    68  GLN68       0.2608
     40  OE1       80.9330   93.3770  113.2410 O.2    68  GLN68      -0.2717
     41  NE2       79.3810   92.1610  112.1600 N.am   68  GLN68      -0.0878
     42  N         80.9540   94.0220  107.1760 N.am   69  LEU69      -0.1966
     43  CA        81.2990   94.9340  106.1000 C.3    69  LEU69       0.1728
     44  C         80.9900   96.3680  106.4850 C.2    69  LEU69       0.2616
     45  O         79.8900   96.6470  106.9400 O.2    69  LEU69      -0.2715
     46  CB        80.5010   94.5480  104.8520 C.3    69  LEU69       0.0311
     47  CG        80.5270   95.3980  103.5800 C.3    69  LEU69       0.0022
     48  CD1       81.9230   95.4770  102.9930 C.3    69  LEU69       0.0001
     49  CD2       79.5800   94.7590  102.5800 C.3    69  LEU69       0.0001
     50  N         81.9520   97.2730  106.3070 N.am   70  LEU70      -0.1977
     51  CA        81.7280   98.6830  106.6110 C.3    70  LEU70       0.1596
     52  C         80.7700   99.2930  105.5980 C.2    70  LEU70       0.2287
     53  O         80.5240   98.7180  104.5350 O.2    70  LEU70      -0.2864
     54  CB        83.0210   99.4780  106.5560 C.3    70  LEU70       0.0297
     55  CG        84.0150   99.4050  107.6980 C.3    70  LEU70       0.0022
     56  CD1       84.6370  100.7860  107.8650 C.3    70  LEU70       0.0001
     57  CD2       83.3250   98.9970  108.9780 C.3    70  LEU70       0.0001
     58  N         82.4660  100.6440  102.2170 N.3    73  TRP73      -0.1241
     59  CA        82.7010   99.5600  101.2690 C.3    73  TRP73       0.1605
     60  C         81.4400   98.9160  100.7380 C.2    73  TRP73       0.2264
     61  O         81.4190   98.3960   99.6160 O.2    73  TRP73      -0.2867
     62  CB        83.6580   98.5400  101.8990 C.3    73  TRP73       0.0550
     63  CG        84.8970   99.2590  102.2620 C.ar   73  TRP73       0.0003
     64  CD1       85.3850   99.4780  103.5150 C.ar   73  TRP73       0.0946
     65  CD2       85.6700  100.0780  101.3810 C.ar   73  TRP73       0.0152
     66  NE1       86.4060  100.4060  103.4740 N.ar   73  TRP73      -0.2442
     67  CE2       86.5980  100.7900  102.1730 C.ar   73  TRP73       0.0810
     68  CE3       85.6600  100.2910   99.9960 C.ar   73  TRP73       0.0012
     69  CZ2       87.5070  101.7010  101.6250 C.ar   73  TRP73       0.0191
     70  CZ3       86.5620  101.1980   99.4520 C.ar   73  TRP73       0.0001
     71  CH2       87.4710  101.8920  100.2660 C.ar   73  TRP73       0.0015
     72  N         80.3570  101.1330   97.7840 N.3    76  ALA76      -0.1231
     73  CA        81.0540  100.8640   96.5590 C.3    76  ALA76       0.1694
     74  C         80.6150   99.5510   95.9140 C.2    76  ALA76       0.2592
     75  O         80.1200   99.5530   94.7800 O.2    76  ALA76      -0.2718
     76  CB        82.5270  100.8660   96.8190 C.3    76  ALA76       0.0304
     77  N         80.7620   98.4410   96.6400 N.am   77  TYR77      -0.1976
     78  CA        80.3930   97.1230   96.1090 C.3    77  TYR77       0.1639
     79  C         78.9750   96.9960   95.6510 C.2    77  TYR77       0.2290
     80  O         78.6900   96.3040   94.6760 O.2    77  TYR77      -0.2864
     81  CB        80.6850   96.0360   97.1250 C.3    77  TYR77       0.0560
     82  CG        82.1250   95.6870   97.0950 C.ar   77  TYR77      -0.0198
     83  CD1       82.6480   94.9550   96.0410 C.ar   77  TYR77      -0.0009
     84  CD2       82.9930   96.1890   98.0480 C.ar   77  TYR77      -0.0009
     85  CE1       83.9990   94.7430   95.9340 C.ar   77  TYR77       0.0417
     86  CE2       84.3380   95.9860   97.9450 C.ar   77  TYR77       0.0417
     87  CZ        84.8420   95.2670   96.8940 C.ar   77  TYR77       0.1957
     88  OH        86.1970   95.1090   96.8070 O.3    77  TYR77      -0.2866
     89  N         79.3250   98.5670   92.4110 N.3    80  GLN80      -0.1245
     90  CA        80.2060   97.7910   91.5460 C.3    80  GLN80       0.1566
     91  C         79.5070   96.5260   91.0340 C.2    80  GLN80       0.2260
     92  O         79.3060   96.3640   89.8310 O.2    80  GLN80      -0.2867
     93  CB        81.4760   97.4080   92.3100 C.3    80  GLN80       0.0367
     94  CG        82.5980   96.8360   91.4550 C.3    80  GLN80       0.0905
     95  CD        83.6570   96.1450   92.2940 C.2    80  GLN80       0.2608
     96  OE1       84.3440   96.7760   93.1070 O.2    80  GLN80      -0.2717
     97  NE2       83.7860   94.8340   92.1100 N.am   80  GLN80      -0.0878
     98  N         85.2830   90.8230   97.6160 N.3    98  GLN98      -0.1245
     99  CA        86.4320   91.3840   98.3020 C.3    98  GLN98       0.1566
    100  C         87.4780   90.2870   98.3020 C.2    98  GLN98       0.2260
    101  O         88.6340   90.5250   97.9860 O.2    98  GLN98      -0.2867
    102  CB        86.0820   91.7740   99.7430 C.3    98  GLN98       0.0367
    103  CG        85.2220   93.0190   99.8730 C.3    98  GLN98       0.0905
    104  CD        85.0170   93.4480  101.3170 C.2    98  GLN98       0.2608
    105  OE1       85.6110   94.4280  101.7780 O.2    98  GLN98      -0.2717
    106  NE2       84.1690   92.7130  102.0420 N.am   98  GLN98      -0.0878
    107  N         87.6770   87.8970   96.2440 N.3   100  LYS100     -0.1231
    108  CA        88.1550   87.6570   94.8850 C.3   100  LYS100      0.1693
    109  C         89.1450   88.7410   94.5000 C.2   100  LYS100      0.2592
    110  O         90.1050   88.4830   93.7820 O.2   100  LYS100     -0.2718
    111  CB        87.0160   87.6260   93.8550 C.3   100  LYS100      0.0285
    112  CG        87.5480   87.5050   92.4220 C.3   100  LYS100      0.0035
    113  CD        86.4710   87.3520   91.3590 C.3   100  LYS100      0.0206
    114  CE        87.0970   87.4840   89.9730 C.3   100  LYS100      0.1093
    115  NZ        86.1470   87.2210   88.8490 N.3   100  LYS100     -0.1314
    116  N         88.9070   89.9550   94.9800 N.am  101  GLU101     -0.1966
    117  CA        89.7940   91.0690   94.6800 C.3   101  GLU101      0.1733
    118  C         91.1110   90.9160   95.3890 C.2   101  GLU101      0.2616
    119  O         92.1030   91.5370   95.0080 O.2   101  GLU101     -0.2715
    120  CB        89.1670   92.3850   95.0950 C.3   101  GLU101      0.0429
    121  CG        88.0730   92.8250   94.1820 C.3   101  GLU101      0.1163
    122  CD        87.4610   94.0990   94.6530 C.2   101  GLU101      0.3649
    123  OE1       88.1280   94.8070   95.4450 O.co2 101  GLU101     -0.2457
    124  OE2       86.3270   94.3890   94.2270 O.co2 101  GLU101     -0.2457
    125  N         91.1080   90.1120   96.4470 N.am  102  ARG102     -0.1977
    126  CA        92.3250   89.8380   97.1990 C.3   102  ARG102      0.1597
    127  C         92.8750   88.5550   96.5880 C.2   102  ARG102      0.2287
    128  O         93.8100   87.9700   97.1080 O.2   102  ARG102     -0.2864
    129  CB        92.0290   89.6020   98.6820 C.3   102  ARG102      0.0334
    130  CG        91.0260   90.5520   99.3050 C.3   102  ARG102      0.0492
    131  CD        91.5130   91.9770   99.3980 C.3   102  ARG102      0.2205
    132  NE        92.7320   92.0880  100.1890 N.pl3 102  ARG102     -0.0865
    133  CZ        93.9480   92.2390   99.6720 C.cat 102  ARG102      0.5346
    134  NH1       94.1100   92.2970   98.3590 N.pl3 102  ARG102      0.1354
    135  NH2       95.0020   92.3460  100.4670 N.pl3 102  ARG102      0.1354
    136  N         93.4740   92.3660  105.5950 N.3   122  ASN122     -0.1225
    137  CA        93.1480   93.7900  105.5160 C.3   122  ASN122      0.1785
    138  C         91.6610   94.0510  105.2830 C.2   122  ASN122      0.2597
    139  O         91.2100   95.1940  105.2660 O.2   122  ASN122     -0.2718
    140  CB        94.0050   94.4970  104.4440 C.3   122  ASN122      0.1169
    141  CG        93.9730   93.7950  103.1030 C.2   122  ASN122      0.2627
    142  OD1       94.4110   92.6410  102.9810 O.2   122  ASN122     -0.2716
    143  ND2       93.4650   94.4880  102.0830 N.am  122  ASN122     -0.0877
    144  N         90.8850   92.9900  105.1310 N.am  123  ILE123     -0.1966
    145  CA        89.4590   93.1450  104.9210 C.3   123  ILE123      0.1727
    146  C         88.6770   92.9550  106.2270 C.2   123  ILE123      0.2616
    147  O         87.6510   93.6020  106.4440 O.2   123  ILE123     -0.2715
    148  CB        88.9750   92.1380  103.8550 C.3   123  ILE123      0.0290
    149  CG1       89.7300   92.4000  102.5480 C.3   123  ILE123      0.0022
    150  CG2       87.4720   92.2470  103.6430 C.3   123  ILE123      0.0023
    151  CD1       89.7820   93.8840  102.1300 C.3   123  ILE123      0.0001
    152  N         89.1690   92.0770  107.0970 N.am  124  TRP124     -0.1960
    153  CA        88.5120   91.7940  108.3730 C.3   124  TRP124      0.1771
    154  C         89.4800   91.8890  109.5480 C.2   124  TRP124      0.2619
    155  O         90.4430   91.1230  109.6420 O.2   124  TRP124     -0.2715
    156  CB        87.8770   90.4050  108.3270 C.3   124  TRP124      0.0590
    157  CG        86.7480   90.3270  107.3630 C.ar  124  TRP124      0.0006
    158  CD1       85.5210   90.9050  107.4980 C.ar  124  TRP124      0.0946
    159  CD2       86.7700   89.7240  106.0630 C.ar  124  TRP124      0.0152
    160  NE1       84.7800   90.7100  106.3570 N.ar  124  TRP124     -0.2442
    161  CE2       85.5250   89.9920  105.4560 C.ar  124  TRP124      0.0810
    162  CE3       87.7250   88.9930  105.3460 C.ar  124  TRP124      0.0012
    163  CZ2       85.2070   89.5530  104.1670 C.ar  124  TRP124      0.0191
    164  CZ3       87.4100   88.5570  104.0680 C.ar  124  TRP124      0.0001
    165  CH2       86.1620   88.8420  103.4900 C.ar  124  TRP124      0.0015
    166  N         89.2030   92.8290  110.4490 N.am  125  ALA125     -0.1977
    167  CA        90.0470   93.0730  111.6120 C.3   125  ALA125      0.1597
    168  C         90.2030   91.8920  112.5640 C.2   125  ALA125      0.2287
    169  O         91.1080   91.8850  113.3890 O.2   125  ALA125     -0.2864
    170  CB        89.5380   94.3000  112.3730 C.3   125  ALA125      0.0319
    171  N         94.0400   96.2750  112.6820 N.3   132  TYR132     -0.1241
    172  CA        93.2140   97.3640  113.0760 C.3   132  TYR132      0.1605
    173  C         93.2870   97.5880  114.6540 C.2   132  TYR132      0.2264
    174  O         92.5110   98.3800  115.1890 O.2   132  TYR132     -0.2867
    175  CB        91.7730   97.1880  112.4990 C.3   132  TYR132      0.0534
    176  CG        91.6940   97.1560  110.9490 C.ar  132  TYR132     -0.0201
    177  CD1       91.8070   95.9590  110.2490 C.ar  132  TYR132     -0.0009
    178  CD2       91.5340   98.3270  110.2190 C.ar  132  TYR132     -0.0009
    179  CE1       91.7630   95.9270  108.8580 C.ar  132  TYR132      0.0417
    180  CE2       91.4860   98.3130  108.8330 C.ar  132  TYR132      0.0417
    181  CZ        91.6020   97.1110  108.1540 C.ar  132  TYR132      0.1957
    182  OH        91.5440   97.0790  106.7780 O.3   132  TYR132     -0.2866
    183  N         92.6170   95.5170  116.9180 N.3   134  GLN134     -0.1245
    184  CA        91.5190   94.8000  117.4970 C.3   134  GLN134      0.1566
    185  C         91.9600   93.4050  117.9690 C.2   134  GLN134      0.2260
    186  O         93.1350   93.0430  117.8100 O.2   134  GLN134     -0.2867
    187  CB        90.3790   94.6810  116.4900 C.3   134  GLN134      0.0367
    188  CG        89.9930   96.0090  115.9020 C.3   134  GLN134      0.0905
    189  CD        89.5000   96.9340  116.9870 C.2   134  GLN134      0.2608
    190  OE1       88.5070   96.6450  117.6470 O.2   134  GLN134     -0.2717
    191  NE2       90.1940   98.0500  117.1840 N.am  134  GLN134     -0.0878
@<TRIPOS>BOND
     1   115   114    1
     2    92    91    2
     3   114   113    1
     4    91    90    1
     5   113   112    1
     6    94    95    1
     7    94    93    1
     8    90    93    1
     9    90    89    1
    10    97    95   am
    11    95    96    2
    12   112   111    1
    13   110   109    2
    14   111   108    1
    15   121   122    1
    16   121   120    1
    17   124   122   ar
    18   109   108    1
    19   109   116   am
    20   122   123   ar
    21    80    79    2
    22   117   116    1
    23   117   120    1
    24   117   118    1
    25    75    74    2
    26   108   107    1
    27   119   118    2
    28   118   125   am
    29    79    78    1
    30    74    73    1
    31    74    77   am
    32    85    83   ar
    33    85    87   ar
    34    83    82   ar
    35    78    77    1
    36    78    81    1
    37   125   126    1
    38    73    76    1
    39    73    72    1
    40   127   128    2
    41   127   126    1
    42    88    87    1
    43    87    86   ar
    44    82    81    1
    45    82    84   ar
    46   126   129    1
    47    98    99    1
    48    86    84   ar
    49   101   100    2
    50    99   100    1
    51    99   102    1
    52   134   133    1
    53   129   130    1
    54   130   131    1
    55   131   132    1
    56    70    68   ar
    57    70    71   ar
    58    61    60    2
    59   133   132    2
    60   133   135    1
    61   102   103    1
    62   103   104    1
    63    68    65   ar
    64    71    69   ar
    65    60    59    1
    66    59    62    1
    67    59    58    1
    68   104   105    2
    69   104   106   am
    70    65    67   ar
    71    65    63   ar
    72    69    67   ar
    73    62    63    1
    74   143   141   am
    75   151   149    1
    76    67    66   ar
    77    63    64   ar
    78   149   148    1
    79    49    47    1
    80   142   141    2
    81    48    47    1
    82   141   140    1
    83    66    64   ar
    84   165   164   ar
    85   165   163   ar
    86    47    46    1
    87   150   148    1
    88   148   145    1
    89   164   162   ar
    90   163   161   ar
    91   140   137    1
    92    53    52    2
    93    46    43    1
    94   145   144    1
    95   145   146    1
    96   144   138   am
    97   139   138    2
    98   138   137    1
    99   162   159   ar
   100   161   159   ar
   101   161   160   ar
   102   137   136    1
   103    52    51    1
   104   159   157   ar
   105    43    44    1
   106    43    42    1
   107   146   147    2
   108   146   152   am
   109    50    44   am
   110    50    51    1
   111   160   158   ar
   112    44    45    2
   113    54    51    1
   114    54    55    1
   115   182   181    1
   116   152   153    1
   117    42    35   am
   118   157   158   ar
   119   157   156    1
   120    55    56    1
   121    55    57    1
   122   181   180   ar
   123   181   179   ar
   124    35    36    2
   125    35    34    1
   126   156   153    1
   127   153   154    1
   128    33    34    1
   129   180   178   ar
   130   179   177   ar
   131    34    37    1
   132   154   155    2
   133   154   166   am
   134   178   176   ar
   135   177   176   ar
   136    37    38    1
   137   166   167    1
   138     6     7    1
   139     6     5    1
   140   176   175    1
   141     7     9   ar
   142     7     8   ar
   143    38    39    1
   144   167   170    1
   145   167   168    1
   146     5     2    1
   147    41    39   am
   148    39    40    2
   149   175   172    1
   150   168   169    2
   151    32    31    1
   152   171   172    1
   153     1     2    1
   154    29    28    1
   155    29    30    2
   156     2     3    1
   157   172   173    1
   158    28    31    1
   159    28    27    1
   160     3     4    2
   161    21    20    2
   162    27    20   am
   163   173   174    2
   164    20    19    1
   165    22    19    1
   166    22    23    1
   167   188   187    1
   168   188   189    1
   169    19    18    1
   170    16    15    1
   171    24    23    1
   172    24    25    1
   173   187   184    1
   174    18    12   am
   175   183   184    1
   176    26    25    1
   177   189   191   am
   178   189   190    2
   179   184   185    1
   180    15    17    1
   181    15    14    1
   182   186   185    2
   183    12    11    1
   184    12    13    2
   185    11    14    1
   186    11    10    1
