@<TRIPOS>MOLECULE
tmp/3d3dB00.pdb
 139 131 0 0 0
SMALL
GASTEIGER

@<TRIPOS>ATOM
      1  N         85.2490   84.0610  112.8950 N.3    18  SER18      -0.1202
      2  CA        86.3120   84.9990  113.2540 C.3    18  SER18       0.2020
      3  C         85.7630   86.3650  113.6390 C.2    18  SER18       0.2619
      4  O         86.0910   86.9060  114.6910 O.2    18  SER18      -0.2717
      5  CB        87.2940   85.1670  112.0900 C.3    18  SER18       0.2103
      6  OG        88.2380   86.1860  112.3650 O.3    18  SER18      -0.2182
      7  N         84.9280   86.9210  112.7710 N.am   19  GLU19      -0.1965
      8  CA        84.3440   88.2310  113.0040 C.3    19  GLU19       0.1733
      9  C         83.3480   88.2710  114.1580 C.2    19  GLU19       0.2616
     10  O         82.6170   89.2410  114.3250 O.2    19  GLU19      -0.2715
     11  CB        83.6790   88.7150  111.7250 C.3    19  GLU19       0.0429
     12  CG        84.6560   89.1510  110.6700 C.3    19  GLU19       0.1163
     13  CD        85.3850   90.4030  111.0710 C.2    19  GLU19       0.3649
     14  OE1       84.7100   91.4080  111.3850 O.co2  19  GLU19      -0.2457
     15  OE2       86.6310   90.3820  111.0760 O.co2  19  GLU19      -0.2457
     16  N         83.3330   87.2200  114.9620 N.am   20  GLY20      -0.1955
     17  CA        82.4240   87.1870  116.0900 C.3    20  GLY20       0.1869
     18  C         80.9560   87.2510  115.7110 C.2    20  GLY20       0.2309
     19  O         80.1310   87.7100  116.4980 O.2    20  GLY20      -0.2863
     20  N         79.7260   82.4870  115.7920 N.3    23  ASN23      -0.1240
     21  CA        80.6450   81.7990  116.7030 C.3    23  ASN23       0.1653
     22  C         80.0360   80.9760  117.8470 C.2    23  ASN23       0.2266
     23  O         80.7720   80.4700  118.7010 O.2    23  ASN23      -0.2867
     24  CB        81.6090   82.8190  117.3210 C.3    23  ASN23       0.1155
     25  CG        80.8800   83.8760  118.1250 C.2    23  ASN23       0.2627
     26  OD1       79.6580   83.8480  118.1990 O.2    23  ASN23      -0.2716
     27  ND2       81.6130   84.8090  118.7200 N.am   23  ASN23      -0.0877
     28  N         78.2620   82.0730  120.3170 N.3    25  ARG25      -0.1231
     29  CA        78.1290   82.8590  121.5410 C.3    25  ARG25       0.1694
     30  C         77.3490   84.1090  121.1570 C.2    25  ARG25       0.2591
     31  O         76.3060   84.4220  121.7440 O.2    25  ARG25      -0.2718
     32  CB        79.5000   83.2500  122.0810 C.3    25  ARG25       0.0321
     33  CG        80.3310   82.0800  122.5260 C.3    25  ARG25       0.0489
     34  CD        81.8190   82.3730  122.4180 C.3    25  ARG25       0.2205
     35  NE        82.2560   83.4250  123.3240 N.pl3  25  ARG25      -0.0865
     36  CZ        82.8020   84.5690  122.9310 C.cat  25  ARG25       0.5346
     37  NH1       82.9730   84.8240  121.6400 N.pl3  25  ARG25       0.1354
     38  NH2       83.2110   85.4460  123.8380 N.pl3  25  ARG25       0.1354
     39  N         77.8720   84.8120  120.1590 N.am   26  GLN26      -0.1979
     40  CA        77.2600   86.0210  119.6450 C.3    26  GLN26       0.1601
     41  C         75.8470   85.7390  119.2010 C.2    26  GLN26       0.2287
     42  O         75.6300   84.9290  118.3050 O.2    26  GLN26      -0.2864
     43  CB        78.0500   86.5500  118.4460 C.3    26  GLN26       0.0394
     44  CG        77.3360   87.6520  117.6570 C.3    26  GLN26       0.0908
     45  CD        77.2480   88.9600  118.4050 C.2    26  GLN26       0.2608
     46  OE1       78.2430   89.4570  118.9210 O.2    26  GLN26      -0.2717
     47  NE2       76.0620   89.5300  118.4560 N.am   26  GLN26      -0.0878
     48  N         74.7360   90.4190  112.3620 N.3    35  VAL35      -0.1231
     49  CA        75.4850   91.0760  113.4110 C.3    35  VAL35       0.1692
     50  C         76.0630   92.4240  113.0250 C.2    35  VAL35       0.2592
     51  O         76.6880   92.5580  111.9860 O.2    35  VAL35      -0.2718
     52  CB        76.6420   90.1840  113.9040 C.3    35  VAL35       0.0266
     53  CG1       77.4130   90.8800  115.0060 C.3    35  VAL35       0.0020
     54  CG2       76.0880   88.8660  114.4040 C.3    35  VAL35       0.0020
     55  N         75.8310   93.4290  113.8570 N.am   36  ILE36      -0.1966
     56  CA        76.4060   94.7550  113.6490 C.3    36  ILE36       0.1727
     57  C         77.5940   94.6850  114.5780 C.2    36  ILE36       0.2616
     58  O         77.5710   93.9340  115.5570 O.2    36  ILE36      -0.2715
     59  CB        75.5070   95.8800  114.1800 C.3    36  ILE36       0.0290
     60  CG1       74.2600   96.0190  113.3180 C.3    36  ILE36       0.0022
     61  CG2       76.2740   97.1810  114.2170 C.3    36  ILE36       0.0023
     62  CD1       73.2090   96.8950  113.9610 C.3    36  ILE36       0.0001
     63  N         78.6300   95.4540  114.2930 N.am   37  VAL37      -0.1963
     64  CA        79.7750   95.4600  115.1750 C.3    37  VAL37       0.1727
     65  C         79.2550   95.8710  116.5660 C.2    37  VAL37       0.2617
     66  O         78.2670   96.6020  116.6780 O.2    37  VAL37      -0.2715
     67  CB        80.8070   96.4670  114.6750 C.3    37  VAL37       0.0290
     68  CG1       80.1400   97.8200  114.4970 C.3    37  VAL37       0.0023
     69  CG2       81.9730   96.5430  115.6370 C.3    37  VAL37       0.0023
     70  N         79.9010   95.3900  117.6210 N.am   38  GLY38      -0.1940
     71  CA        79.4550   95.7290  118.9560 C.3    38  GLY38       0.2014
     72  C         78.5920   94.6480  119.5680 C.2    38  GLY38       0.2639
     73  O         78.4470   94.5800  120.7890 O.2    38  GLY38      -0.2714
     74  N         78.0270   93.7930  118.7240 N.am   39  GLY39      -0.1954
     75  CA        77.1930   92.7130  119.2230 C.3    39  GLY39       0.1869
     76  C         75.7240   92.9340  118.9460 C.2    39  GLY39       0.2309
     77  O         74.9430   91.9860  118.9640 O.2    39  GLY39      -0.2863
     78  N         82.3260  101.8680  119.7020 N.3    55  LEU55      -0.1245
     79  CA        82.8380  100.7660  120.4960 C.3    55  LEU55       0.1561
     80  C         83.7180  101.1260  121.6820 C.2    55  LEU55       0.2260
     81  O         83.8270  100.3620  122.6510 O.2    55  LEU55      -0.2867
     82  CB        83.6050   99.8150  119.5990 C.3    55  LEU55       0.0270
     83  CG        82.7410   98.9930  118.6610 C.3    55  LEU55       0.0019
     84  CD1       83.6360   98.0230  117.9310 C.3    55  LEU55       0.0001
     85  CD2       81.6700   98.2430  119.4540 C.3    55  LEU55       0.0001
     86  N         80.8760   98.5910  110.5890 N.3    63  GLY63      -0.1225
     87  CA        80.7890   97.2170  110.1240 C.3    63  GLY63       0.1811
     88  C         79.5910   96.4010  110.5270 C.2    63  GLY63       0.2280
     89  O         79.2530   96.3300  111.7020 O.2    63  GLY63      -0.2866
     90  N         80.9750   91.5020  108.7390 N.3    68  GLN68      -0.1245
     91  CA        81.2070   92.8420  109.2790 C.3    68  GLN68       0.1566
     92  C         81.7160   93.8570  108.2460 C.2    68  GLN68       0.2260
     93  O         82.7610   94.4730  108.4180 O.2    68  GLN68      -0.2867
     94  CB        82.1980   92.7330  110.4330 C.3    68  GLN68       0.0367
     95  CG        81.7090   91.8500  111.5590 C.3    68  GLN68       0.0905
     96  CD        80.6360   92.5250  112.3980 C.2    68  GLN68       0.2608
     97  OE1       80.9330   93.3770  113.2410 O.2    68  GLN68      -0.2717
     98  NE2       79.3810   92.1610  112.1600 N.am   68  GLN68      -0.0878
     99  N         89.2030   92.8290  110.4490 N.3   125  ALA125     -0.1231
    100  CA        90.0470   93.0730  111.6120 C.3   125  ALA125      0.1694
    101  C         90.2030   91.8920  112.5640 C.2   125  ALA125      0.2592
    102  O         91.1080   91.8850  113.3890 O.2   125  ALA125     -0.2718
    103  CB        89.5380   94.3000  112.3730 C.3   125  ALA125      0.0304
    104  N         89.3410   90.8900  112.4500 N.am  126  SER126     -0.1952
    105  CA        89.4180   89.7370  113.3380 C.3   126  SER126      0.1924
    106  C         90.4080   88.7010  112.8210 C.2   126  SER126      0.2314
    107  O         90.8060   87.7810  113.5460 O.2   126  SER126     -0.2863
    108  CB        88.0410   89.0940  113.4780 C.3   126  SER126      0.2116
    109  OG        87.5970   88.6220  112.2230 O.3   126  SER126     -0.2180
    110  N         92.6170   95.5170  116.9180 N.3   134  GLN134     -0.1231
    111  CA        91.5190   94.8000  117.4970 C.3   134  GLN134      0.1698
    112  C         91.9600   93.4050  117.9690 C.2   134  GLN134      0.2592
    113  O         93.1350   93.0430  117.8100 O.2   134  GLN134     -0.2718
    114  CB        90.3790   94.6810  116.4900 C.3   134  GLN134      0.0381
    115  CG        89.9930   96.0090  115.9020 C.3   134  GLN134      0.0905
    116  CD        89.5000   96.9340  116.9870 C.2   134  GLN134      0.2608
    117  OE1       88.5070   96.6450  117.6470 O.2   134  GLN134     -0.2717
    118  NE2       90.1940   98.0500  117.1840 N.am  134  GLN134     -0.0878
    119  N         91.0350   92.6200  118.5580 N.am  135  PHE135     -0.1976
    120  CA        91.3320   91.2540  118.9950 C.3   135  PHE135      0.1639
    121  C         91.4670   90.3270  117.8270 C.2   135  PHE135      0.2290
    122  O         90.4210   89.9120  117.3230 O.2   135  PHE135     -0.2864
    123  CB        90.2480   90.7000  119.9030 C.3   135  PHE135      0.0560
    124  CG        90.4530   89.2370  120.1380 C.ar  135  PHE135     -0.0200
    125  CD1       90.9380   88.8240  121.3740 C.ar  135  PHE135     -0.0042
    126  CD2       90.1730   88.2680  119.1760 C.ar  135  PHE135     -0.0042
    127  CE1       91.1470   87.4790  121.6490 C.ar  135  PHE135     -0.0003
    128  CE2       90.3810   86.9220  119.4430 C.ar  135  PHE135     -0.0003
    129  CZ        90.8690   86.5260  120.6800 C.ar  135  PHE135     -0.0000
    130  N         91.8680   86.7310  115.7860 N.3   137  HIS137     -0.1241
    131  CA        91.8340   85.2910  116.0120 C.3   137  HIS137      0.1621
    132  C         93.1180   84.6030  115.5640 C.2   137  HIS137      0.2264
    133  O         93.9960   85.2310  114.9800 O.2   137  HIS137     -0.2867
    134  CB        90.6790   84.6460  115.2550 C.3   137  HIS137      0.0745
    135  CG        89.3400   84.8250  115.9880 C.ar  137  HIS137      0.0817
    136  ND1       89.0430   84.2010  117.1840 N.ar  137  HIS137     -0.2268
    137  CD2       88.2590   85.5830  115.6870 C.ar  137  HIS137      0.1154
    138  CE1       87.8430   84.5700  117.5860 C.ar  137  HIS137      0.1986
    139  NE2       87.3430   85.4090  116.6960 N.ar  137  HIS137     -0.2212
@<TRIPOS>BOND
     1    92    93    2
     2    92    91    1
     3    90    91    1
     4    91    94    1
     5    87    88    1
     6    87    86    1
     7    94    95    1
     8    99   100    1
     9    88    89    2
    10    12    13    1
    11    12    11    1
    12    13    15   ar
    13    13    14   ar
    14    95    96    1
    15   100   103    1
    16   100   101    1
    17    11     8    1
    18    51    50    2
    19     5     6    1
    20     5     2    1
    21    98    96   am
    22   109   108    1
    23    48    49    1
    24    96    97    2
    25   104   101   am
    26   104   105    1
    27   101   102    2
    28     7     8    1
    29     7     3   am
    30   106   105    1
    31   106   107    2
    32     1     2    1
    33     8     9    1
    34    50    49    1
    35    50    55   am
    36     2     3    1
    37    60    62    1
    38    60    59    1
    39   105   108    1
    40    49    52    1
    41     3     4    2
    42    56    55    1
    43    56    59    1
    44    56    57    1
    45    52    54    1
    46    52    53    1
    47     9    10    2
    48     9    16   am
    49    59    61    1
    50    63    57   am
    51    63    64    1
    52    68    67    1
    53    57    58    2
    54    67    64    1
    55    67    69    1
    56    16    17    1
    57   133   132    2
    58    64    65    1
    59   134   135    1
    60   134   131    1
    61   132   131    1
    62   137   135   ar
    63   137   139   ar
    64    18    17    1
    65    18    19    2
    66   130   131    1
    67    20    21    1
    68   115   114    1
    69   115   116    1
    70   135   136   ar
    71   114   111    1
    72    65    66    2
    73    65    70   am
    74   139   138   ar
    75    21    24    1
    76    21    22    1
    77   110   111    1
    78   116   118   am
    79   116   117    2
    80   136   138   ar
    81    24    25    1
    82   122   121    2
    83   111   112    1
    84    70    71    1
    85    44    45    1
    86    44    43    1
    87   113   112    2
    88   121   120    1
    89    22    23    2
    90    84    83    1
    91   112   119   am
    92    25    26    2
    93    25    27   am
    94    42    41    2
    95    45    47   am
    96    45    46    2
    97    43    40    1
    98   119   120    1
    99    83    85    1
   100    83    82    1
   101    74    75    1
   102    74    72   am
   103    76    77    2
   104    76    75    1
   105    71    72    1
   106   120   123    1
   107   126   128   ar
   108   126   124   ar
   109    41    40    1
   110   128   129   ar
   111    72    73    2
   112    82    79    1
   113    40    39    1
   114    78    79    1
   115   123   124    1
   116   124   125   ar
   117    39    30   am
   118    28    29    1
   119    79    80    1
   120   129   127   ar
   121    30    29    1
   122    30    31    2
   123   125   127   ar
   124    29    32    1
   125    37    36    1
   126    80    81    2
   127    32    33    1
   128    34    33    1
   129    34    35    1
   130    36    35    2
   131    36    38    1
