@<TRIPOS>MOLECULE
tmp/3d3eA01.pdb
 154 148 0 0 0
SMALL
GASTEIGER

@<TRIPOS>ATOM
      1  N          2.5960   -6.4920   23.7350 N.3   101  ILE101     -0.1245
      2  CA         2.0570   -6.9880   22.4520 C.3   101  ILE101      0.1561
      3  C          2.6660   -8.3320   22.0490 C.2   101  ILE101      0.2260
      4  O          3.7010   -8.7370   22.5480 O.2   101  ILE101     -0.2867
      5  CB         2.2950   -6.0250   21.2470 C.3   101  ILE101      0.0252
      6  CG1        3.7900   -5.9200   20.9250 C.3   101  ILE101      0.0019
      7  CG2        1.6610   -4.6760   21.4700 C.3   101  ILE101      0.0019
      8  CD1        4.1370   -4.7570   20.0420 C.3   101  ILE101      0.0001
      9  N          5.7930   -9.3780   16.6870 N.3   104  THR104     -0.1203
     10  CA         5.5150   -9.0910   15.2820 C.3   104  THR104      0.1994
     11  C          6.7630   -8.7340   14.5140 C.2   104  THR104      0.2619
     12  O          7.5940   -7.9710   14.9920 O.2   104  THR104     -0.2717
     13  CB         4.6010   -7.8630   15.0790 C.3   104  THR104      0.1784
     14  OG1        3.7510   -7.6650   16.2160 O.3   104  THR104     -0.2211
     15  CG2        3.7650   -8.0400   13.8140 C.3   104  THR104      0.0376
     16  N          6.8700   -9.2500   13.2990 N.am  105  SER105     -0.1937
     17  CA         7.8630   -8.7400   12.3690 C.3   105  SER105      0.2055
     18  C          7.1970   -7.7850   11.3730 C.2   105  SER105      0.2642
     19  O          5.9880   -7.5650   11.4260 O.2   105  SER105     -0.2714
     20  CB         8.5960   -9.8840   11.6570 C.3   105  SER105      0.2130
     21  OG         7.7230  -10.6480   10.8430 O.3   105  SER105     -0.2179
     22  N          7.9990   -7.1960   10.4950 N.am  106  LEU106     -0.1977
     23  CA         7.4990   -6.3850    9.4060 C.3   106  LEU106      0.1596
     24  C          7.5120   -7.1860    8.1180 C.2   106  LEU106      0.2287
     25  O          8.5630   -7.6410    7.6820 O.2   106  LEU106     -0.2864
     26  CB         8.3980   -5.1790    9.2260 C.3   106  LEU106      0.0297
     27  CG         8.5790   -4.3960   10.5150 C.3   106  LEU106      0.0022
     28  CD1        9.5790   -3.2860   10.2890 C.3   106  LEU106      0.0001
     29  CD2        7.2410   -3.8350   10.9450 C.3   106  LEU106      0.0001
     30  N         -0.0400    3.4530   18.8430 N.3   150  SER150     -0.1202
     31  CA         0.9670    3.9700   17.9070 C.3   150  SER150      0.2020
     32  C          0.4520    5.0090   16.9450 C.2   150  SER150      0.2619
     33  O         -0.7010    5.4390   16.9910 O.2   150  SER150     -0.2717
     34  CB         1.5270    2.8690   17.0200 C.3   150  SER150      0.2103
     35  OG         1.7850    1.7050   17.7720 O.3   150  SER150     -0.2182
     36  N          1.3430    5.3930   16.0450 N.am  151  LEU151     -0.1965
     37  CA         0.9710    6.2350   14.9470 C.3   151  LEU151      0.1728
     38  C          0.1960    5.2970   14.0690 C.2   151  LEU151      0.2616
     39  O         -0.8300    5.6560   13.4930 O.2   151  LEU151     -0.2715
     40  CB         2.2080    6.7000   14.1900 C.3   151  LEU151      0.0311
     41  CG         2.9570    7.9250   14.7050 C.3   151  LEU151      0.0022
     42  CD1        3.6870    8.5580   13.5390 C.3   151  LEU151      0.0001
     43  CD2        1.9820    8.9020   15.3230 C.3   151  LEU151      0.0001
     44  N          0.7100    4.0760   13.9870 N.am  152  ALA152     -0.1977
     45  CA         0.1100    3.0500   13.1390 C.3   152  ALA152      0.1597
     46  C         -1.2740    2.6640   13.6440 C.2   152  ALA152      0.2287
     47  O         -1.8960    1.7470   13.1290 O.2   152  ALA152     -0.2864
     48  CB         1.0070    1.8260   13.0510 C.3   152  ALA152      0.0319
     49  N          0.0320    2.5600    7.5590 N.3   157  TYR157     -0.1228
     50  CA         1.3770    2.2730    7.1080 C.3   157  TYR157      0.1721
     51  C          1.2640    0.8800    6.5150 C.2   157  TYR157      0.2437
     52  O          0.4030    0.1190    6.9350 O.2   157  TYR157     -0.2733
     53  CB         2.3350    2.1630    8.2940 C.3   157  TYR157      0.0547
     54  CG         2.5670    3.4000    9.1380 C.ar  157  TYR157     -0.0200
     55  CD1        1.5730    3.9020    9.9690 C.ar  157  TYR157     -0.0009
     56  CD2        3.8170    4.0330    9.1480 C.ar  157  TYR157     -0.0009
     57  CE1        1.8020    5.0240   10.7670 C.ar  157  TYR157      0.0417
     58  CE2        4.0600    5.1540    9.9400 C.ar  157  TYR157      0.0417
     59  CZ         3.0520    5.6450   10.7490 C.ar  157  TYR157      0.1957
     60  OH         3.2860    6.7560   11.5400 O.3   157  TYR157     -0.2866
     61  N          2.1290    0.5340    5.5510 N.am  158  PRO158     -0.2718
     62  CA         2.2430   -0.8490    5.1030 C.3   158  PRO158      0.1535
     63  C          3.0650   -1.6670    6.0950 C.2   158  PRO158      0.2598
     64  O          3.7120   -1.0980    6.9740 O.2   158  PRO158     -0.2715
     65  CB         3.0290   -0.7190    3.8030 C.3   158  PRO158      0.0310
     66  CG         3.8730    0.4830    4.0200 C.3   158  PRO158      0.0237
     67  CD         2.9940    1.4360    4.7750 C.3   158  PRO158      0.0939
     68  N          3.0470   -2.9900    5.9510 N.am  159  MET159     -0.1964
     69  CA         3.9000   -3.8690    6.7570 C.3   159  MET159      0.1736
     70  C          3.4460   -4.0860    8.2050 C.2   159  MET159      0.2616
     71  O          4.1020   -4.8070    8.9470 O.2   159  MET159     -0.2715
     72  CB         5.3510   -3.3710    6.7630 C.3   159  MET159      0.0427
     73  CG         5.9220   -3.0520    5.3940 C.3   159  MET159      0.0599
     74  SD         5.6940   -4.3570    4.1680 S.3   159  MET159     -0.1393
     75  CE         5.6260   -3.3450    2.6850 C.3   159  MET159      0.0692
     76  N          2.3480   -3.4750    8.6270 N.am  160  VAL160     -0.1977
     77  CA         1.8350   -3.7620    9.9690 C.3   160  VAL160      0.1596
     78  C          0.3150   -3.8580   10.0040 C.2   160  VAL160      0.2287
     79  O         -0.3290   -3.2340   10.8470 O.2   160  VAL160     -0.2864
     80  CB         2.2510   -2.6790   10.9740 C.3   160  VAL160      0.0276
     81  CG1        3.7540   -2.7370   11.2610 C.3   160  VAL160      0.0022
     82  CG2        1.8440   -1.3170   10.4520 C.3   160  VAL160      0.0022
     83  N         -0.9800   -5.7180   13.1360 N.3   163  TYR163     -0.1241
     84  CA        -0.5870   -4.8610   14.2400 C.3   163  TYR163      0.1605
     85  C         -1.5000   -3.6490   14.2650 C.2   163  TYR163      0.2264
     86  O         -2.0350   -3.2700   15.3120 O.2   163  TYR163     -0.2867
     87  CB         0.8890   -4.4470   14.0940 C.3   163  TYR163      0.0534
     88  CG         1.3750   -3.4110   15.0920 C.ar  163  TYR163     -0.0201
     89  CD1        1.8630   -3.7880   16.3420 C.ar  163  TYR163     -0.0009
     90  CD2        1.3650   -2.0550   14.7770 C.ar  163  TYR163     -0.0009
     91  CE1        2.3110   -2.8430   17.2570 C.ar  163  TYR163      0.0417
     92  CE2        1.8070   -1.0980   15.6850 C.ar  163  TYR163      0.0417
     93  CZ         2.2870   -1.4970   16.9230 C.ar  163  TYR163      0.1957
     94  OH         2.7370   -0.5480   17.8200 O.3   163  TYR163     -0.2866
     95  N          2.3610    6.7510   19.9330 N.3   195  LEU195     -0.1231
     96  CA         3.8020    6.8060   19.9500 C.3   195  LEU195      0.1693
     97  C          4.3320    6.6200   18.5480 C.2   195  LEU195      0.2593
     98  O          3.9210    5.6960   17.8410 O.2   195  LEU195     -0.2718
     99  CB         4.3660    5.7040   20.8520 C.3   195  LEU195      0.0284
    100  CG         3.9020    5.6480   22.3100 C.3   195  LEU195      0.0019
    101  CD1        4.7020    4.6070   23.0860 C.3   195  LEU195      0.0001
    102  CD2        4.0260    7.0060   22.9750 C.3   195  LEU195      0.0001
    103  N          5.2420    7.5060   18.1540 N.am  196  GLY196     -0.1942
    104  CA         6.0260    7.3220   16.9430 C.3   196  GLY196      0.2014
    105  C          7.0530    6.2320   17.1780 C.2   196  GLY196      0.2639
    106  O          6.9440    5.4620   18.1320 O.2   196  GLY196     -0.2714
    107  N          8.0540    6.1580   16.3100 N.am  197  LEU197     -0.1963
    108  CA         9.0970    5.1420   16.4500 C.3   197  LEU197      0.1728
    109  C          9.9850    5.3730   17.6840 C.2   197  LEU197      0.2616
    110  O         10.4220    6.4970   17.9550 O.2   197  LEU197     -0.2715
    111  CB         9.9430    5.0760   15.1840 C.3   197  LEU197      0.0311
    112  CG        11.0740    4.0640   15.2250 C.3   197  LEU197      0.0022
    113  CD1       10.5160    2.6790   15.4890 C.3   197  LEU197      0.0001
    114  CD2       11.8150    4.0990   13.9010 C.3   197  LEU197      0.0001
    115  N         10.2340    4.3000   18.4290 N.am  198  ILE198     -0.1977
    116  CA        10.9880    4.3790   19.6760 C.3   198  ILE198      0.1596
    117  C         12.1710    3.4310   19.6440 C.2   198  ILE198      0.2287
    118  O         12.0960    2.3650   19.0340 O.2   198  ILE198     -0.2864
    119  CB        10.1220    4.0090   20.8640 C.3   198  ILE198      0.0276
    120  CG1        8.7600    4.6800   20.7450 C.3   198  ILE198      0.0022
    121  CG2       10.7770    4.4700   22.1420 C.3   198  ILE198      0.0022
    122  CD1        8.7390    6.0570   21.3390 C.3   198  ILE198      0.0001
    123  N         13.8950   -4.3850   20.0890 N.3   202  THR202     -0.1203
    124  CA        13.0090   -5.0030   19.0960 C.3   202  THR202      0.1994
    125  C         12.7110   -4.1140   17.8940 C.2   202  THR202      0.2617
    126  O         12.8780   -4.5290   16.7470 O.2   202  THR202     -0.2717
    127  CB        11.6760   -5.3920   19.7430 C.3   202  THR202      0.1784
    128  OG1       11.9400   -6.1960   20.8940 O.3   202  THR202     -0.2211
    129  CG2       10.7980   -6.1610   18.7730 C.3   202  THR202      0.0376
    130  N         12.2570   -2.8950   18.1630 N.am  203  ALA203     -0.1979
    131  CA        11.9250   -1.9670   17.0950 C.3   203  ALA203      0.1597
    132  C         13.1440   -1.6810   16.2310 C.2   203  ALA203      0.2287
    133  O         13.0750   -1.7360   15.0020 O.2   203  ALA203     -0.2864
    134  CB        11.3590   -0.6870   17.6640 C.3   203  ALA203      0.0319
    135  N         14.1570   -4.3880   13.7710 N.3   206  ALA206     -0.1231
    136  CA        13.3590   -4.5230   12.5510 C.3   206  ALA206      0.1694
    137  C         13.6140   -3.3790   11.5760 C.2   206  ALA206      0.2591
    138  O         13.7340   -3.5940   10.3730 O.2   206  ALA206     -0.2718
    139  CB        11.8870   -4.6230   12.8890 C.3   206  ALA206      0.0304
    140  N         13.6880   -2.1670   12.1200 N.am  207  VAL207     -0.1980
    141  CA        14.1150   -0.9750   11.3910 C.3   207  VAL207      0.1595
    142  C         15.6410   -0.8160   11.4070 C.2   207  VAL207      0.2287
    143  O         16.3780   -1.7930   11.2840 O.2   207  VAL207     -0.2864
    144  CB        13.5060    0.2620   12.0320 C.3   207  VAL207      0.0276
    145  CG1       12.0040    0.2040   11.9020 C.3   207  VAL207      0.0022
    146  CG2       13.9170    0.3370   13.5110 C.3   207  VAL207      0.0022
    147  N         16.4520    1.4230    7.5790 N.3   210  ILE210     -0.1245
    148  CA        15.2720    1.8920    6.8550 C.3   210  ILE210      0.1561
    149  C         14.9280    3.3180    7.3240 C.2   210  ILE210      0.2260
    150  O         14.0860    3.9990    6.7370 O.2   210  ILE210     -0.2867
    151  CB        14.0810    0.9390    7.0660 C.3   210  ILE210      0.0252
    152  CG1       14.2540    0.1960    8.3960 C.3   210  ILE210      0.0019
    153  CG2       13.9940   -0.0530    5.9170 C.3   210  ILE210      0.0019
    154  CD1       12.9760   -0.4040    8.9660 C.3   210  ILE210      0.0001
@<TRIPOS>BOND
     1    75    74    1
     2    65    66    1
     3    65    62    1
     4    66    67    1
     5    74    73    1
     6    67    61    1
     7    62    61    1
     8    62    63    1
     9    73    72    1
    10    61    51   am
    11   153   151    1
    12    68    63   am
    13    68    69    1
    14    63    64    2
    15    51    52    2
    16    51    50    1
    17   150   149    2
    18    69    72    1
    19    69    70    1
    20   148   151    1
    21   148   149    1
    22   148   147    1
    23   151   152    1
    24    50    49    1
    25    50    53    1
    26    25    24    2
    27    24    23    1
    28    70    76   am
    29    70    71    2
    30    53    54    1
    31   152   154    1
    32    76    77    1
    33    54    56   ar
    34    54    55   ar
    35    56    58   ar
    36    26    23    1
    37    26    27    1
    38    23    22    1
    39    58    59   ar
    40    55    57   ar
    41    77    78    1
    42    77    80    1
    43    78    79    2
    44    28    27    1
    45   138   137    2
    46    82    80    1
    47    22    18   am
    48    27    29    1
    49    59    57   ar
    50    59    60    1
    51    21    20    1
    52    80    81    1
    53   143   142    2
    54    18    19    2
    55    18    17    1
    56   141   142    1
    57   141   144    1
    58   141   140    1
    59   137   140   am
    60   137   136    1
    61    20    17    1
    62   145   144    1
    63   144   146    1
    64    17    16    1
    65   136   139    1
    66   136   135    1
    67    48    45    1
    68    47    46    2
    69    83    84    1
    70    45    46    1
    71    45    44    1
    72    16    11   am
    73    39    38    2
    74    42    41    1
    75    15    13    1
    76   114   112    1
    77    44    38   am
    78    38    37    1
    79    87    84    1
    80    87    88    1
    81    40    41    1
    82    40    37    1
    83    84    85    1
    84    85    86    2
    85    11    12    2
    86    11    10    1
    87    41    43    1
    88    90    88   ar
    89    90    92   ar
    90    37    36    1
    91   133   132    2
    92    13    10    1
    93    13    14    1
    94    88    89   ar
    95   111   112    1
    96   111   108    1
    97   112   113    1
    98    10     9    1
    99    92    93   ar
   100    36    32   am
   101   132   131    1
   102   107   108    1
   103   107   105   am
   104    89    91   ar
   105   108   109    1
   106   126   125    2
   107    93    91   ar
   108    93    94    1
   109   104   105    1
   110   104   103    1
   111    32    33    2
   112    32    31    1
   113    34    35    1
   114    34    31    1
   115   131   134    1
   116   131   130    1
   117   105   106    2
   118   109   110    2
   119   109   115   am
   120    98    97    2
   121   125   130   am
   122   125   124    1
   123    31    30    1
   124   103    97   am
   125   115   116    1
   126    97    96    1
   127   129   127    1
   128   118   117    2
   129   124   127    1
   130   124   123    1
   131   117   116    1
   132   116   119    1
   133   127   128    1
   134    95    96    1
   135    96    99    1
   136     8     6    1
   137   120   119    1
   138   120   122    1
   139    99   100    1
   140   119   121    1
   141     6     5    1
   142     5     7    1
   143     5     2    1
   144     3     2    1
   145     3     4    2
   146   100   102    1
   147   100   101    1
   148     2     1    1
