@<TRIPOS>MOLECULE
tmp/3d3hA00.pdb
 175 169 0 0 0
SMALL
GASTEIGER

@<TRIPOS>ATOM
      1  N         43.4110   38.2610   20.6230 N.3    23  GLU23      -0.1245
      2  CA        42.8350   38.9110   19.4510 C.3    23  GLU23       0.1567
      3  C         43.3800   40.2610   19.0000 C.2    23  GLU23       0.2260
      4  O         43.3460   40.5670   17.8050 O.2    23  GLU23      -0.2867
      5  CB        41.3220   39.0520   19.6600 C.3    23  GLU23       0.0388
      6  CG        40.5870   37.7360   19.7580 C.3    23  GLU23       0.1160
      7  CD        40.5090   37.0160   18.4330 C.2    23  GLU23       0.3649
      8  OE1       40.3620   35.7780   18.4370 O.co2  23  GLU23      -0.2457
      9  OE2       40.5810   37.6890   17.3800 O.co2  23  GLU23      -0.2457
     10  N         48.5370   44.8370   10.7260 N.3    38  ILE38      -0.1245
     11  CA        48.2450   44.3730    9.3760 C.3    38  ILE38       0.1561
     12  C         49.5250   43.9700    8.6550 C.2    38  ILE38       0.2260
     13  O         49.6130   42.8800    8.0870 O.2    38  ILE38      -0.2867
     14  CB        47.5510   45.4550    8.5320 C.3    38  ILE38       0.0252
     15  CG1       46.3250   46.0010    9.2630 C.3    38  ILE38       0.0019
     16  CG2       47.1030   44.8540    7.2060 C.3    38  ILE38       0.0019
     17  CD1       45.5430   47.0380    8.4640 C.3    38  ILE38       0.0001
     18  N         47.4840   34.1530   10.3270 N.3    44  GLN44      -0.1231
     19  CA        47.4280   35.2260   11.3130 C.3    44  GLN44       0.1698
     20  C         46.6160   36.4070   10.7910 C.2    44  GLN44       0.2593
     21  O         46.9680   37.0130    9.7770 O.2    44  GLN44      -0.2718
     22  CB        48.8440   35.6930   11.6640 C.3    44  GLN44       0.0381
     23  CG        48.9050   36.7670   12.7470 C.3    44  GLN44       0.0905
     24  CD        48.4290   36.2710   14.1030 C.2    44  GLN44       0.2608
     25  OE1       47.2700   35.8850   14.2690 O.2    44  GLN44      -0.2717
     26  NE2       49.3270   36.2790   15.0820 N.am   44  GLN44      -0.0878
     27  N         45.5290   36.7260   11.4920 N.am   45  GLY45      -0.1942
     28  CA        44.6800   37.8370   11.0970 C.3    45  GLY45       0.2014
     29  C         45.2510   39.1600   11.5660 C.2    45  GLY45       0.2639
     30  O         46.1760   39.1860   12.3800 O.2    45  GLY45      -0.2714
     31  N         44.7050   40.2620   11.0570 N.am   46  GLY46      -0.1939
     32  CA        45.2010   41.5720   11.4510 C.3    46  GLY46       0.2014
     33  C         44.1220   42.5340   11.9090 C.2    46  GLY46       0.2639
     34  O         44.3830   43.7190   12.1170 O.2    46  GLY46      -0.2714
     35  N         42.9070   42.0220   12.0740 N.am   47  SER47      -0.1949
     36  CA        41.7820   42.8420   12.5010 C.3    47  SER47       0.1924
     37  C         41.7950   43.0990   14.0030 C.2    47  SER47       0.2314
     38  O         42.1760   42.2350   14.7880 O.2    47  SER47      -0.2863
     39  CB        40.4620   42.1730   12.0950 C.3    47  SER47       0.2116
     40  OG        40.4010   40.8260   12.5360 O.3    47  SER47      -0.2180
     41  N         36.0830   43.7540   14.8280 N.3    52  GLN52      -0.1245
     42  CA        35.2260   42.5850   15.0140 C.3    52  GLN52       0.1566
     43  C         33.8740   43.0420   15.5370 C.2    52  GLN52       0.2260
     44  O         32.8360   42.5310   15.1350 O.2    52  GLN52      -0.2867
     45  CB        35.8590   41.6000   16.0080 C.3    52  GLN52       0.0367
     46  CG        37.2530   41.1460   15.6180 C.3    52  GLN52       0.0905
     47  CD        37.8590   40.1540   16.5940 C.2    52  GLN52       0.2608
     48  OE1       39.0780   39.9870   16.6350 O.2    52  GLN52      -0.2717
     49  NE2       37.0180   39.4830   17.3730 N.am   52  GLN52      -0.0878
     50  N         32.1120   44.4530   12.6010 N.3    55  LYS55      -0.1231
     51  CA        31.7310   43.3900   11.6750 C.3    55  LYS55       0.1693
     52  C         30.4340   42.6950   12.0970 C.2    55  LYS55       0.2592
     53  O         29.6010   42.3420   11.2640 O.2    55  LYS55      -0.2718
     54  CB        32.8630   42.3620   11.5800 C.3    55  LYS55       0.0285
     55  CG        32.5830   41.2190   10.6140 C.3    55  LYS55       0.0035
     56  CD        33.7380   40.2230   10.5300 C.3    55  LYS55       0.0206
     57  CE        33.8980   39.4260   11.8110 C.3    55  LYS55       0.1093
     58  NZ        34.8940   38.3200   11.6810 N.3    55  LYS55      -0.1314
     59  N         30.2660   42.5100   13.3980 N.am   56  ASN56      -0.1974
     60  CA        29.0930   41.8360   13.9300 C.3    56  ASN56       0.1688
     61  C         27.8920   42.7630   14.1270 C.2    56  ASN56       0.2292
     62  O         26.8680   42.3470   14.6690 O.2    56  ASN56      -0.2864
     63  CB        29.4610   41.1450   15.2490 C.3    56  ASN56       0.1181
     64  CG        30.5330   40.0730   15.0690 C.2    56  ASN56       0.2629
     65  OD1       31.4700   39.9660   15.8630 O.2    56  ASN56      -0.2716
     66  ND2       30.3900   39.2690   14.0230 N.am   56  ASN56      -0.0877
     67  N         31.6470   38.5430    3.1700 N.3    63  ARG63      -0.1231
     68  CA        33.0470   38.8970    3.3830 C.3    63  ARG63       0.1694
     69  C         33.7510   39.4340    2.1440 C.2    63  ARG63       0.2593
     70  O         34.7870   38.9150    1.7310 O.2    63  ARG63      -0.2718
     71  CB        33.8270   37.6920    3.9370 C.3    63  ARG63       0.0321
     72  CG        33.2900   37.1470    5.2650 C.3    63  ARG63       0.0489
     73  CD        33.0360   38.2740    6.2620 C.3    63  ARG63       0.2205
     74  NE        34.2440   39.0430    6.5590 N.pl3  63  ARG63      -0.0865
     75  CZ        34.2410   40.3190    6.9300 C.cat  63  ARG63       0.5346
     76  NH1       35.3850   40.9400    7.1880 N.pl3  63  ARG63       0.1354
     77  NH2       33.0940   40.9800    7.0270 N.pl3  63  ARG63       0.1354
     78  N         33.1890   40.4830    1.5580 N.am   64  THR64      -0.1939
     79  CA        33.7840   41.0970    0.3800 C.3    64  THR64       0.2028
     80  C         34.7300   42.2150    0.8140 C.2    64  THR64       0.2642
     81  O         34.6470   42.7110    1.9410 O.2    64  THR64      -0.2714
     82  CB        32.7010   41.6860   -0.5530 C.3    64  THR64       0.1808
     83  OG1       31.9240   42.6600    0.1570 O.3    64  THR64      -0.2208
     84  CG2       31.7810   40.5840   -1.0590 C.3    64  THR64       0.0379
     85  N         35.6370   42.6020   -0.0760 N.am   65  LEU65      -0.1977
     86  CA        36.5830   43.6690    0.2250 C.3    65  LEU65       0.1596
     87  C         35.7720   44.9320    0.4580 C.2    65  LEU65       0.2287
     88  O         36.1290   45.7840    1.2720 O.2    65  LEU65      -0.2864
     89  CB        37.5430   43.8730   -0.9490 C.3    65  LEU65       0.0297
     90  CG        38.8070   44.7120   -0.7290 C.3    65  LEU65       0.0022
     91  CD1       39.5980   44.7350   -2.0210 C.3    65  LEU65       0.0001
     92  CD2       38.4690   46.1290   -0.3070 C.3    65  LEU65       0.0001
     93  N         34.7010   45.0310    4.0820 N.3    68  LYS68      -0.1245
     94  CA        35.7880   45.0230    5.0430 C.3    68  LYS68       0.1561
     95  C         36.1330   46.4970    5.2840 C.2    68  LYS68       0.2260
     96  O         36.4150   46.9110    6.4150 O.2    68  LYS68      -0.2867
     97  CB        37.0090   44.2750    4.5050 C.3    68  LYS68       0.0271
     98  CG        38.1770   44.2550    5.4900 C.3    68  LYS68       0.0035
     99  CD        37.7430   43.6920    6.8440 C.3    68  LYS68       0.0206
    100  CE        38.7850   43.9140    7.9440 C.3    68  LYS68       0.1093
    101  NZ        40.0330   43.1130    7.7700 N.3    68  LYS68      -0.1314
    102  N         30.0860   38.9920   21.5060 N.3    95  ILE95      -0.1231
    103  CA        30.8470   37.9100   20.8840 C.3    95  ILE95       0.1692
    104  C         30.2150   36.5070   20.9340 C.2    95  ILE95       0.2592
    105  O         29.8820   35.9980   22.0030 O.2    95  ILE95      -0.2718
    106  CB        32.2700   37.8700   21.5130 C.3    95  ILE95       0.0266
    107  CG1       33.1430   36.8310   20.8150 C.3    95  ILE95       0.0019
    108  CG2       32.1770   37.5780   23.0010 C.3    95  ILE95       0.0020
    109  CD1       33.5070   37.1890   19.3990 C.3    95  ILE95       0.0001
    110  N         30.0330   35.8780   19.7770 N.am   96  TYR96      -0.1976
    111  CA        29.4760   34.5330   19.7720 C.3    96  TYR96       0.1639
    112  C         30.5870   33.5740   20.1930 C.2    96  TYR96       0.2290
    113  O         31.6710   33.5550   19.5980 O.2    96  TYR96      -0.2864
    114  CB        28.9510   34.1340   18.3920 C.3    96  TYR96       0.0560
    115  CG        28.3240   32.7530   18.4050 C.ar   96  TYR96      -0.0198
    116  CD1       27.2080   32.4810   19.2100 C.ar   96  TYR96      -0.0009
    117  CD2       28.8740   31.7040   17.6670 C.ar   96  TYR96      -0.0009
    118  CE1       26.6600   31.2010   19.2810 C.ar   96  TYR96       0.0417
    119  CE2       28.3310   30.4200   17.7300 C.ar   96  TYR96       0.0417
    120  CZ        27.2260   30.1740   18.5390 C.ar   96  TYR96       0.1957
    121  OH        26.6890   28.9060   18.6090 O.3    96  TYR96      -0.2866
    122  N         26.1360   33.8710   23.5120 N.3   102  TYR102     -0.1241
    123  CA        26.6080   35.1710   23.0200 C.3   102  TYR102      0.1605
    124  C         27.0160   35.9830   24.2370 C.2   102  TYR102      0.2264
    125  O         26.1770   36.2700   25.0740 O.2   102  TYR102     -0.2867
    126  CB        25.5020   35.9340   22.2860 C.3   102  TYR102      0.0534
    127  CG        25.1130   35.3410   20.9580 C.ar  102  TYR102     -0.0201
    128  CD1       24.2600   34.2480   20.8900 C.ar  102  TYR102     -0.0009
    129  CD2       25.6310   35.8550   19.7680 C.ar  102  TYR102     -0.0009
    130  CE1       23.9300   33.6760   19.6770 C.ar  102  TYR102      0.0417
    131  CE2       25.3110   35.2890   18.5460 C.ar  102  TYR102      0.0417
    132  CZ        24.4600   34.1940   18.5080 C.ar  102  TYR102      0.1957
    133  OH        24.1550   33.5950   17.3040 O.3   102  TYR102     -0.2866
    134  N         36.5520   32.6980   19.8000 N.3   131  PRO131     -0.2102
    135  CA        36.2590   33.6410   18.7100 C.3   131  PRO131      0.1504
    136  C         36.8040   33.2870   17.3210 C.2   131  PRO131      0.2576
    137  O         36.1440   33.5310   16.3150 O.2   131  PRO131     -0.2718
    138  CB        36.8160   34.9570   19.2390 C.3   131  PRO131      0.0282
    139  CG        36.5670   34.8380   20.7270 C.3   131  PRO131      0.0208
    140  CD        37.0060   33.4110   21.0080 C.3   131  PRO131      0.0893
    141  N         38.0060   32.7290   17.2610 N.am  132  LYS132     -0.1966
    142  CA        38.6110   32.3480   15.9850 C.3   132  LYS132      0.1728
    143  C         37.6850   31.4380   15.1760 C.2   132  LYS132      0.2616
    144  O         37.5770   31.5670   13.9570 O.2   132  LYS132     -0.2715
    145  CB        39.9400   31.6320   16.2370 C.3   132  LYS132      0.0311
    146  CG        40.6260   31.1090   14.9940 C.3   132  LYS132      0.0038
    147  CD        41.8540   30.2950   15.3770 C.3   132  LYS132      0.0206
    148  CE        42.6290   29.8150   14.1530 C.3   132  LYS132      0.1093
    149  NZ        43.2360   30.9620   13.4120 N.3   132  LYS132     -0.1314
    150  N         37.0290   30.5120   15.8690 N.am  133  ALA133     -0.1964
    151  CA        36.1020   29.5690   15.2540 C.3   133  ALA133      0.1713
    152  C         35.4750   28.7470   16.3780 C.2   133  ALA133      0.2458
    153  O         36.0030   27.7070   16.7580 O.2   133  ALA133     -0.2730
    154  CB        36.8460   28.6580   14.2750 C.3   133  ALA133      0.0333
    155  N         34.3340   29.2070   16.9170 N.am  134  PRO134     -0.2716
    156  CA        33.6200   28.5330   18.0090 C.3   134  PRO134      0.1536
    157  C         33.3370   27.0470   17.7980 C.2   134  PRO134      0.2598
    158  O         33.5680   26.2400   18.7000 O.2   134  PRO134     -0.2715
    159  CB        32.3390   29.3520   18.1470 C.3   134  PRO134      0.0310
    160  CG        32.7560   30.7240   17.6990 C.3   134  PRO134      0.0237
    161  CD        33.6180   30.4240   16.4930 C.3   134  PRO134      0.0939
    162  N         32.8420   26.6790   16.6190 N.am  135  ALA135     -0.1964
    163  CA        32.5280   25.2780   16.3380 C.3   135  ALA135      0.1728
    164  C         33.7620   24.4130   16.1060 C.2   135  ALA135      0.2616
    165  O         33.7250   23.1990   16.3070 O.2   135  ALA135     -0.2715
    166  CB        31.5960   25.1810   15.1390 C.3   135  ALA135      0.0334
    167  N         34.8590   25.0330   15.6870 N.am  136  LYS136     -0.1977
    168  CA        36.0890   24.2960   15.4320 C.3   136  LYS136      0.1596
    169  C         36.8750   24.0390   16.7160 C.2   136  LYS136      0.2287
    170  O         37.5760   23.0370   16.8260 O.2   136  LYS136     -0.2864
    171  CB        36.9430   25.0630   14.4240 C.3   136  LYS136      0.0298
    172  CG        38.2870   24.4330   14.0830 C.3   136  LYS136      0.0038
    173  CD        38.9340   25.1700   12.9040 C.3   136  LYS136      0.0206
    174  CE        40.4220   24.8740   12.7750 C.3   136  LYS136      0.1093
    175  NZ        40.7000   23.4260   12.5960 N.3   136  LYS136     -0.1314
@<TRIPOS>BOND
     1    91    90    1
     2    84    82    1
     3    89    90    1
     4    89    86    1
     5    90    92    1
     6    82    83    1
     7    82    79    1
     8    85    86    1
     9    85    80   am
    10    86    87    1
    11    79    80    1
    12    79    78    1
    13    87    88    2
    14    80    81    2
    15    78    69   am
    16    70    69    2
    17    69    68    1
    18    67    68    1
    19    68    71    1
    20    71    72    1
    21    93    94    1
    22    97    94    1
    23    97    98    1
    24    94    95    1
    25    72    73    1
    26    95    96    2
    27    98    99    1
    28    73    74    1
    29    74    75    2
    30    99   100    1
    31    75    77    1
    32    75    76    1
    33    16    14    1
    34   101   100    1
    35    13    12    2
    36    17    15    1
    37    14    15    1
    38    14    11    1
    39    12    11    1
    40    11    10    1
    41    21    20    2
    42    18    19    1
    43    56    55    1
    44    56    57    1
    45    55    54    1
    46    20    19    1
    47    20    27   am
    48    31    32    1
    49    31    29   am
    50    28    27    1
    51    28    29    1
    52    53    52    2
    53    19    22    1
    54    32    33    1
    55    29    30    2
    56    54    51    1
    57    22    23    1
    58    51    52    1
    59    51    50    1
    60    58    57    1
    61    33    35   am
    62    33    34    2
    63    35    36    1
    64    39    36    1
    65    39    40    1
    66    52    59   am
    67    36    37    1
    68   175   174    1
    69    23    24    1
    70   174   173    1
    71   173   172    1
    72    59    60    1
    73   149   148    1
    74    60    61    1
    75    60    63    1
    76   144   143    2
    77    37    38    2
    78    66    64   am
    79   172   171    1
    80    24    25    2
    81    24    26   am
    82    61    62    2
    83   148   147    1
    84   154   151    1
    85   171   168    1
    86    41    42    1
    87   146   147    1
    88   146   145    1
    89    42    43    1
    90    42    45    1
    91    64    63    1
    92    64    65    2
    93    44    43    2
    94   166   163    1
    95   143   150   am
    96   143   142    1
    97   151   150    1
    98   151   152    1
    99   168   167    1
   100   168   169    1
   101    46    45    1
   102    46    47    1
   103   167   164   am
   104   142   145    1
   105   142   141    1
   106   164   165    2
   107   164   163    1
   108   137   136    2
   109   163   162    1
   110   152   153    2
   111   152   155   am
   112   161   155    1
   113   161   160    1
   114    47    48    2
   115    47    49   am
   116   162   157   am
   117   169   170    2
   118   155   156    1
   119   141   136   am
   120   133   132    1
   121   136   135    1
   122     9     7   ar
   123   117   119   ar
   124   117   115   ar
   125   160   159    1
   126   119   120   ar
   127   157   156    1
   128   157   158    2
   129     4     3    2
   130   156   159    1
   131   114   115    1
   132   114   111    1
   133   115   116   ar
   134     7     8   ar
   135     7     6    1
   136   132   131   ar
   137   132   130   ar
   138   120   121    1
   139   120   118   ar
   140   131   129   ar
   141   135   138    1
   142   135   134    1
   143     3     2    1
   144   116   118   ar
   145   138   139    1
   146   109   107    1
   147     2     5    1
   148     2     1    1
   149   113   112    2
   150     5     6    1
   151   130   128   ar
   152   129   127   ar
   153   111   110    1
   154   111   112    1
   155   110   104   am
   156   134   140    1
   157   139   140    1
   158   107   106    1
   159   103   104    1
   160   103   102    1
   161   103   106    1
   162   128   127   ar
   163   104   105    2
   164   127   126    1
   165   106   108    1
   166   126   123    1
   167   123   122    1
   168   123   124    1
   169   124   125    2
