@<TRIPOS>MOLECULE
tmp/3d3pA00.pdb
 206 202 0 0 0
SMALL
GASTEIGER

@<TRIPOS>ATOM
      1  N         44.2230   36.1040   62.6790 N.3    82  TYR82      -0.1227
      2  CA        43.9650   37.2670   61.8660 C.3    82  TYR82       0.1736
      3  C         44.6790   37.2350   60.5050 C.2    82  TYR82       0.2595
      4  O         44.0290   37.4130   59.4710 O.2    82  TYR82      -0.2718
      5  CB        44.3390   38.5670   62.6090 C.3    82  TYR82       0.0548
      6  CG        44.1040   39.8400   61.7880 C.ar   82  TYR82      -0.0200
      7  CD1       42.8670   40.5120   61.8370 C.ar   82  TYR82      -0.0009
      8  CD2       45.1230   40.3870   61.0090 C.ar   82  TYR82      -0.0009
      9  CE1       42.6680   41.6700   61.1270 C.ar   82  TYR82       0.0417
     10  CE2       44.9240   41.5800   60.2320 C.ar   82  TYR82       0.0417
     11  CZ        43.6610   42.1940   60.3240 C.ar   82  TYR82       0.1957
     12  OH        43.4090   43.3410   59.6230 O.3    82  TYR82      -0.2866
     13  N         46.0010   37.0810   60.5350 N.am   83  HIS83      -0.1975
     14  CA        46.8370   37.0470   59.3270 C.3    83  HIS83       0.1656
     15  C         46.7080   35.7140   58.5680 C.2    83  HIS83       0.2291
     16  O         47.6980   35.0260   58.2990 O.2    83  HIS83      -0.2864
     17  CB        48.2960   37.3990   59.6460 C.3    83  HIS83       0.0771
     18  CG        48.4650   38.8320   60.0620 C.ar   83  HIS83       0.0820
     19  ND1       48.6740   39.1950   61.3700 N.ar   83  HIS83      -0.2267
     20  CD2       48.3430   39.9880   59.3670 C.ar   83  HIS83       0.1154
     21  CE1       48.7450   40.5160   61.4550 C.ar   83  HIS83       0.1986
     22  NE2       48.5250   41.0220   60.2630 N.ar   83  HIS83      -0.2212
     23  N         52.4760   34.1870   56.9850 N.3   127  HIS127     -0.1241
     24  CA        52.6510   34.9430   58.2370 C.3   127  HIS127      0.1621
     25  C         52.5010   33.9880   59.4290 C.2   127  HIS127      0.2264
     26  O         51.5340   33.2510   59.4790 O.2   127  HIS127     -0.2867
     27  CB        51.5450   36.0140   58.2940 C.3   127  HIS127      0.0745
     28  CG        51.8280   37.1200   59.2670 C.ar  127  HIS127      0.0817
     29  ND1       51.9950   36.8980   60.6140 N.ar  127  HIS127     -0.2268
     30  CD2       51.9700   38.4540   59.0760 C.ar  127  HIS127      0.1154
     31  CE1       52.2200   38.0530   61.2220 C.ar  127  HIS127      0.1986
     32  NE2       52.2340   39.0170   60.3070 N.ar  127  HIS127     -0.2212
     33  N         53.8630   47.9780   53.6350 N.3   194  THR194     -0.1218
     34  CA        52.8810   47.5400   54.5950 C.3   194  THR194      0.1862
     35  C         53.5620   47.2760   55.9670 C.2   194  THR194      0.2287
     36  O         52.8790   46.9790   56.9330 O.2   194  THR194     -0.2866
     37  CB        52.0850   46.2720   54.1090 C.3   194  THR194      0.1770
     38  OG1       52.9900   45.1680   54.0060 O.3   194  THR194     -0.2211
     39  CG2       51.4190   46.5250   52.7110 C.3   194  THR194      0.0375
     40  N         54.6030   48.3550   59.3500 N.3   196  MET196     -0.1245
     41  CA        54.1510   49.5210   60.1810 C.3   196  MET196      0.1570
     42  C         55.3180   50.4340   60.6100 C.2   196  MET196      0.2261
     43  O         55.1360   51.6230   60.9220 O.2   196  MET196     -0.2867
     44  CB        53.3410   49.0910   61.4110 C.3   196  MET196      0.0387
     45  CG        51.8420   48.8510   61.1940 C.3   196  MET196      0.0595
     46  SD        50.9010   50.1740   60.3730 S.3   196  MET196     -0.1393
     47  CE        51.1560   51.5480   61.4800 C.3   196  MET196      0.0692
     48  N         48.5150   50.1390   51.6420 N.3   238  HIS238     -0.1241
     49  CA        48.6260   50.4510   53.0790 C.3   238  HIS238      0.1621
     50  C         47.2540   50.7980   53.6650 C.2   238  HIS238      0.2264
     51  O         46.8770   50.2770   54.7150 O.2   238  HIS238     -0.2867
     52  CB        49.6830   51.5700   53.3370 C.3   238  HIS238      0.0745
     53  CG        49.9190   51.8830   54.7920 C.ar  238  HIS238      0.0817
     54  ND1       50.1350   50.9080   55.7390 N.ar  238  HIS238     -0.2268
     55  CD2       50.0010   53.0680   55.4530 C.ar  238  HIS238      0.1154
     56  CE1       50.3280   51.4680   56.9240 C.ar  238  HIS238      0.1986
     57  NE2       50.2410   52.7790   56.7790 N.ar  238  HIS238     -0.2212
     58  N         45.1530   47.7100   53.8700 N.3   241  ASP241     -0.1225
     59  CA        45.6600   46.8740   54.9580 C.3   241  ASP241      0.1805
     60  C         45.0760   47.3930   56.2800 C.2   241  ASP241      0.2597
     61  O         44.7500   46.6170   57.1680 O.2   241  ASP241     -0.2718
     62  CB        47.1870   46.8810   54.9590 C.3   241  ASP241      0.1424
     63  CG        47.7890   45.7650   55.7770 C.2   241  ASP241      0.3668
     64  OD1       47.1250   44.7450   55.9770 O.co2 241  ASP241     -0.2456
     65  OD2       48.9250   45.9240   56.2270 O.co2 241  ASP241     -0.2456
     66  N         44.9400   48.7140   56.3800 N.am  242  LEU242     -0.1979
     67  CA        44.4130   49.3590   57.5820 C.3   242  LEU242      0.1596
     68  C         42.9450   49.8040   57.3890 C.2   242  LEU242      0.2287
     69  O         42.5090   50.8390   57.9230 O.2   242  LEU242     -0.2864
     70  CB        45.3150   50.5600   57.9520 C.3   242  LEU242      0.0297
     71  CG        46.7990   50.3030   58.2060 C.3   242  LEU242      0.0022
     72  CD1       47.4210   51.5860   58.7470 C.3   242  LEU242      0.0001
     73  CD2       47.0250   49.1690   59.1380 C.3   242  LEU242      0.0001
     74  N         40.0660   47.9250   58.2210 N.3   244  ASN244     -0.1226
     75  CA        39.0420   47.2490   59.0470 C.3   244  ASN244      0.1770
     76  C         38.1450   48.2300   59.8240 C.2   244  ASN244      0.2439
     77  O         36.9500   48.0080   59.9310 O.2   244  ASN244     -0.2733
     78  CB        39.6200   46.3080   60.0870 C.3   244  ASN244      0.1168
     79  CG        40.3640   45.0830   59.5060 C.2   244  ASN244      0.2627
     80  OD1       41.0940   44.4610   60.2590 O.2   244  ASN244     -0.2716
     81  ND2       40.1910   44.7470   58.2070 N.am  244  ASN244     -0.0877
     82  N         38.7610   49.2510   60.4700 N.am  245  PRO245     -0.2729
     83  CA        37.9570   50.2260   61.2560 C.3   245  PRO245      0.1401
     84  C         37.0460   51.1470   60.4550 C.2   245  PRO245      0.2269
     85  O         36.1920   51.8380   61.0730 O.2   245  PRO245     -0.2865
     86  CB        39.0100   51.0360   62.0110 C.3   245  PRO245      0.0296
     87  CG        40.2940   50.1330   62.0270 C.3   245  PRO245      0.0237
     88  CD        40.2040   49.4920   60.6190 C.3   245  PRO245      0.0939
     89  N         33.9330   45.2350   61.4080 N.3   252  TYR252     -0.1241
     90  CA        35.0570   45.7350   62.2220 C.3   252  TYR252      0.1605
     91  C         35.1930   44.9630   63.5370 C.2   252  TYR252      0.2264
     92  O         36.3020   44.5760   63.9260 O.2   252  TYR252     -0.2867
     93  CB        34.8370   47.2300   62.4510 C.3   252  TYR252      0.0534
     94  CG        35.8860   47.9400   63.2960 C.ar  252  TYR252     -0.0201
     95  CD1       37.1950   47.4400   63.4380 C.ar  252  TYR252     -0.0009
     96  CD2       35.5690   49.1660   63.8980 C.ar  252  TYR252     -0.0009
     97  CE1       38.1740   48.1390   64.2120 C.ar  252  TYR252      0.0417
     98  CE2       36.5260   49.8650   64.6730 C.ar  252  TYR252      0.0417
     99  CZ        37.8110   49.3470   64.8240 C.ar  252  TYR252      0.1957
    100  OH        38.7250   50.0570   65.5810 O.3   252  TYR252     -0.2866
    101  N         36.8190   41.5890   62.9010 N.3   255  TRP255     -0.1227
    102  CA        38.2440   41.7570   62.6450 C.3   255  TRP255      0.1737
    103  C         39.0140   42.0440   63.9510 C.2   255  TRP255      0.2596
    104  O         40.0440   41.4260   64.2280 O.2   255  TRP255     -0.2718
    105  CB        38.4930   42.9000   61.6960 C.3   255  TRP255      0.0564
    106  CG        38.0460   42.6510   60.2880 C.ar  255  TRP255      0.0003
    107  CD1       37.2000   43.4180   59.5710 C.ar  255  TRP255      0.0946
    108  CD2       38.4860   41.5870   59.4040 C.ar  255  TRP255      0.0152
    109  NE1       37.0430   42.8930   58.2780 N.ar  255  TRP255     -0.2442
    110  CE2       37.8150   41.7740   58.1580 C.ar  255  TRP255      0.0810
    111  CE3       39.3760   40.5200   59.5370 C.ar  255  TRP255      0.0012
    112  CZ2       38.0260   40.9370   57.0390 C.ar  255  TRP255      0.0191
    113  CZ3       39.5600   39.6450   58.4180 C.ar  255  TRP255      0.0001
    114  CH2       38.8860   39.8850   57.1910 C.ar  255  TRP255      0.0015
    115  N         38.4860   42.9470   64.7820 N.am  256  THR256     -0.1953
    116  CA        39.1310   43.1620   66.1080 C.3   256  THR256      0.1897
    117  C         39.2790   41.9190   66.9450 C.2   256  THR256      0.2313
    118  O         40.3590   41.6690   67.4920 O.2   256  THR256     -0.2863
    119  CB        38.3830   44.2590   66.9270 C.3   256  THR256      0.1794
    120  OG1       38.3430   45.4310   66.1310 O.3   256  THR256     -0.2208
    121  CG2       39.1620   44.5860   68.1880 C.3   256  THR256      0.0378
    122  N         42.2280   39.8890   65.5260 N.3   259  ILE259     -0.1231
    123  CA        43.5780   40.4300   65.7760 C.3   259  ILE259      0.1692
    124  C         43.9210   40.2900   67.2390 C.2   259  ILE259      0.2591
    125  O         45.0740   40.0380   67.5810 O.2   259  ILE259     -0.2718
    126  CB        43.8190   41.8390   65.2210 C.3   259  ILE259      0.0266
    127  CG1       45.3070   42.0110   64.8120 C.3   259  ILE259      0.0019
    128  CG2       43.2510   42.9220   66.1690 C.3   259  ILE259      0.0020
    129  CD1       45.5190   43.0410   63.7480 C.3   259  ILE259      0.0001
    130  N         42.9230   40.4280   68.1260 N.am  260  MET260     -0.1979
    131  CA        43.2370   40.2560   69.5480 C.3   260  MET260      0.1605
    132  C         43.5390   38.8350   69.9170 C.2   260  MET260      0.2287
    133  O         44.3890   38.5980   70.7900 O.2   260  MET260     -0.2864
    134  CB        42.1260   40.8520   70.4460 C.3   260  MET260      0.0413
    135  CG        41.8890   42.3260   70.2030 C.3   260  MET260      0.0598
    136  SD        43.3490   43.4050   70.1980 S.3   260  MET260     -0.1393
    137  CE        44.1270   42.9920   71.7540 C.3   260  MET260      0.0692
    138  N         47.1610   38.6130   68.7580 N.3   263  PHE263     -0.1241
    139  CA        48.0680   39.4040   69.5890 C.3   263  PHE263      0.1605
    140  C         48.2140   38.7400   70.9530 C.2   263  PHE263      0.2264
    141  O         49.3460   38.5390   71.4530 O.2   263  PHE263     -0.2867
    142  CB        47.5340   40.8190   69.7680 C.3   263  PHE263      0.0534
    143  CG        47.7200   41.7270   68.5720 C.ar  263  PHE263     -0.0203
    144  CD1       48.6210   41.4220   67.5340 C.ar  263  PHE263     -0.0042
    145  CD2       46.9880   42.9030   68.4930 C.ar  263  PHE263     -0.0042
    146  CE1       48.7980   42.2970   66.4520 C.ar  263  PHE263     -0.0003
    147  CE2       47.1530   43.8090   67.4270 C.ar  263  PHE263     -0.0003
    148  CZ        48.0740   43.4960   66.3810 C.ar  263  PHE263     -0.0000
    149  N         50.6260   45.6620   74.6370 N.3   280  MET280     -0.1245
    150  CA        49.3770   45.5390   73.9090 C.3   280  MET280      0.1570
    151  C         49.0340   44.1060   73.4720 C.2   280  MET280      0.2261
    152  O         47.9360   43.8570   72.9320 O.2   280  MET280     -0.2867
    153  CB        49.3400   46.5390   72.7770 C.3   280  MET280      0.0387
    154  CG        49.1030   47.9650   73.3290 C.3   280  MET280      0.0595
    155  SD        48.7240   49.1660   72.0600 S.3   280  MET280     -0.1393
    156  CE        50.3680   49.2810   71.3290 C.3   280  MET280      0.0692
    157  N         42.6340   50.0140   73.0040 N.3   291  SER291     -0.1202
    158  CA        43.6100   49.7610   71.9450 C.3   291  SER291      0.2020
    159  C         43.0820   50.1290   70.5640 C.2   291  SER291      0.2618
    160  O         43.8060   50.7460   69.8050 O.2   291  SER291     -0.2717
    161  CB        44.1130   48.3370   72.0190 C.3   291  SER291      0.2103
    162  OG        44.9630   48.2370   73.1460 O.3   291  SER291     -0.2182
    163  N         41.8050   49.8470   70.2900 N.am  292  GLN292     -0.1979
    164  CA        41.1630   50.3240   69.0490 C.3   292  GLN292      0.1601
    165  C         41.0350   51.8440   68.9570 C.2   292  GLN292      0.2287
    166  O         41.4150   52.4460   67.9730 O.2   292  GLN292     -0.2864
    167  CB        39.8010   49.6420   68.7890 C.3   292  GLN292      0.0394
    168  CG        39.9010   48.1490   68.4400 C.3   292  GLN292      0.0908
    169  CD        40.9010   47.8950   67.3070 C.2   292  GLN292      0.2608
    170  OE1       40.8210   48.5090   66.2310 O.2   292  GLN292     -0.2717
    171  NE2       41.8880   47.0470   67.5760 N.am  292  GLN292     -0.0878
    172  N         42.8870   54.1070   70.4550 N.3   294  GLY294     -0.1210
    173  CA        44.2630   54.5990   70.2730 C.3   294  GLY294      0.1956
    174  C         44.7860   54.3070   68.8870 C.2   294  GLY294      0.2611
    175  O         45.3480   55.1720   68.2230 O.2   294  GLY294     -0.2717
    176  N         44.5300   53.0820   68.4130 N.am  295  PHE295     -0.1976
    177  CA        44.9050   52.7350   67.0390 C.3   295  PHE295      0.1639
    178  C         44.2520   53.6480   66.0110 C.2   295  PHE295      0.2290
    179  O         44.9060   54.1190   65.0720 O.2   295  PHE295     -0.2864
    180  CB        44.5880   51.2580   66.7350 C.3   295  PHE295      0.0560
    181  CG        45.2570   50.7520   65.4740 C.ar  295  PHE295     -0.0200
    182  CD1       46.6430   50.8850   65.2980 C.ar  295  PHE295     -0.0042
    183  CD2       44.5050   50.1700   64.4530 C.ar  295  PHE295     -0.0042
    184  CE1       47.2790   50.4440   64.1190 C.ar  295  PHE295     -0.0003
    185  CE2       45.1340   49.7190   63.2700 C.ar  295  PHE295     -0.0003
    186  CZ        46.5300   49.8550   63.1150 C.ar  295  PHE295     -0.0000
    187  N         45.6650   57.4550   66.6340 N.3   298  TYR298     -0.1227
    188  CA        47.0780   57.6220   66.3640 C.3   298  TYR298      0.1736
    189  C         47.5550   57.1760   64.9860 C.2   298  TYR298      0.2595
    190  O         48.5160   57.7320   64.4650 O.2   298  TYR298     -0.2718
    191  CB        47.8850   56.9750   67.4910 C.3   298  TYR298      0.0548
    192  CG        47.7110   57.7140   68.8060 C.ar  298  TYR298     -0.0200
    193  CD1       48.3350   58.9450   69.0220 C.ar  298  TYR298     -0.0009
    194  CD2       46.9090   57.1920   69.8290 C.ar  298  TYR298     -0.0009
    195  CE1       48.1790   59.6360   70.2400 C.ar  298  TYR298      0.0417
    196  CE2       46.7400   57.8690   71.0410 C.ar  298  TYR298      0.0417
    197  CZ        47.3810   59.0870   71.2410 C.ar  298  TYR298      0.1957
    198  OH        47.2250   59.7560   72.4360 O.3   298  TYR298     -0.2866
    199  N         46.8690   56.1880   64.3940 N.am  299  ILE299     -0.1980
    200  CA        47.2870   55.6270   63.1030 C.3   299  ILE299      0.1595
    201  C         46.2180   55.6840   62.0020 C.2   299  ILE299      0.2287
    202  O         46.4590   56.2330   60.9370 O.2   299  ILE299     -0.2864
    203  CB        47.7820   54.1400   63.2570 C.3   299  ILE299      0.0276
    204  CG1       48.9700   54.0470   64.2490 C.3   299  ILE299      0.0022
    205  CG2       48.0600   53.4940   61.8600 C.3   299  ILE299      0.0022
    206  CD1       50.2470   54.7180   63.7690 C.3   299  ILE299      0.0001
@<TRIPOS>BOND
     1    48    49    1
     2    39    37    1
     3    49    52    1
     4    49    50    1
     5    52    53    1
     6    33    34    1
     7    50    51    2
     8    58    59    1
     9    38    37    1
    10    37    34    1
    11    34    35    1
    12    53    55   ar
    13    53    54   ar
    14    59    62    1
    15    59    60    1
    16    62    63    1
    17    55    57   ar
    18    54    56   ar
    19    63    64   ar
    20    63    65   ar
    21    35    36    2
    22    60    66   am
    23    60    61    2
    24    66    67    1
    25    57    56   ar
    26    23    24    1
    27   112   114   ar
    28   112   110   ar
    29   114   113   ar
    30    68    67    1
    31    68    69    2
    32    67    70    1
    33    70    71    1
    34   110   109   ar
    35   110   108   ar
    36    71    72    1
    37    71    73    1
    38    81    79   am
    39    74    75    1
    40    24    27    1
    41    24    25    1
    42   109   107   ar
    43    27    28    1
    44    16    15    2
    45   113   111   ar
    46    15    14    1
    47    75    76    1
    48    75    78    1
    49    30    28   ar
    50    30    32   ar
    51    28    29   ar
    52    14    17    1
    53    14    13    1
    54    40    41    1
    55    20    18   ar
    56    20    22   ar
    57   108   111   ar
    58   108   106   ar
    59    25    26    2
    60     4     3    2
    61    79    78    1
    62    79    80    2
    63   107   106   ar
    64    12    11    1
    65    17    18    1
    66    76    77    2
    67    76    82   am
    68    18    19   ar
    69    41    42    1
    70    41    44    1
    71    10    11   ar
    72    10     8   ar
    73    22    21   ar
    74   106   105    1
    75    32    31   ar
    76    11     9   ar
    77    46    45    1
    78    46    47    1
    79    84    85    2
    80    84    83    1
    81    82    88    1
    82    82    83    1
    83     3    13   am
    84     3     2    1
    85    42    43    2
    86    29    31   ar
    87    88    87    1
    88   202   201    2
    89     8     6   ar
    90     9     7   ar
    91    45    44    1
    92    83    86    1
    93    19    21   ar
    94    89    90    1
    95   105   102    1
    96     6     7   ar
    97     6     5    1
    98   205   203    1
    99     2     5    1
   100     2     1    1
   101   201   200    1
   102    86    87    1
   103    90    93    1
   104    90    91    1
   105    93    94    1
   106   102   101    1
   107   102   103    1
   108   200   203    1
   109   200   199    1
   110   186   185   ar
   111   186   184   ar
   112   203   204    1
   113   185   183   ar
   114    94    95   ar
   115    94    96   ar
   116    95    97   ar
   117    91    92    2
   118   129   127    1
   119   206   204    1
   120    96    98   ar
   121   103   104    2
   122   103   115   am
   123   184   182   ar
   124    97    99   ar
   125   199   189   am
   126   183   181   ar
   127   190   189    2
   128    98    99   ar
   129   115   116    1
   130   127   126    1
   131    99   100    1
   132   189   188    1
   133   179   178    2
   134   126   123    1
   135   126   128    1
   136   182   181   ar
   137   181   180    1
   138   122   123    1
   139   123   124    1
   140   178   177    1
   141   116   119    1
   142   116   117    1
   143   120   119    1
   144   170   169    2
   145   188   187    1
   146   188   191    1
   147   148   146   ar
   148   148   147   ar
   149   146   144   ar
   150   180   177    1
   151   119   121    1
   152   117   118    2
   153   177   176    1
   154   124   125    2
   155   124   130   am
   156   169   171   am
   157   169   168    1
   158   147   145   ar
   159   191   192    1
   160   144   143   ar
   161   166   165    2
   162   130   131    1
   163   175   174    2
   164   176   174   am
   165   168   167    1
   166   145   143   ar
   167   143   142    1
   168   138   139    1
   169   167   164    1
   170   192   193   ar
   171   192   194   ar
   172   174   173    1
   173   165   164    1
   174   193   195   ar
   175   164   163    1
   176   131   132    1
   177   131   134    1
   178   139   142    1
   179   139   140    1
   180   160   159    2
   181   194   196   ar
   182   132   133    2
   183   136   135    1
   184   136   137    1
   185   135   134    1
   186   195   197   ar
   187   173   172    1
   188   163   159   am
   189   159   158    1
   190   140   141    2
   191   196   197   ar
   192   197   198    1
   193   156   155    1
   194   158   161    1
   195   158   157    1
   196   161   162    1
   197   155   154    1
   198   153   154    1
   199   153   150    1
   200   152   151    2
   201   151   150    1
   202   150   149    1
