@<TRIPOS>MOLECULE
tmp/3d3tB00.pdb
 140 133 0 0 0
SMALL
GASTEIGER

@<TRIPOS>ATOM
      1  N          6.0310  -27.9710   -6.6340 N.3     8  ARG8       -0.1245
      2  CA         6.1200  -27.3390   -5.3110 C.3     8  ARG8        0.1563
      3  C          6.2810  -28.3840   -4.2050 C.2     8  ARG8        0.2260
      4  O          5.4930  -29.3300   -4.1490 O.2     8  ARG8       -0.2867
      5  CB         4.8860  -26.4770   -5.0220 C.3     8  ARG8        0.0307
      6  CG         4.7980  -25.2370   -5.8910 C.3     8  ARG8        0.0489
      7  CD         3.4740  -24.5270   -5.6850 C.3     8  ARG8        0.2205
      8  NE         3.5460  -23.5720   -4.5820 N.pl3   8  ARG8       -0.0865
      9  CZ         2.4800  -23.0680   -3.9610 C.cat   8  ARG8        0.5346
     10  NH1        1.2540  -23.4330   -4.3350 N.pl3   8  ARG8        0.1354
     11  NH2        2.6420  -22.2000   -2.9670 N.pl3   8  ARG8        0.1354
     12  N          4.4100  -25.3950    2.4980 N.3    23  LEU23      -0.1245
     13  CA         5.5130  -25.4680    1.5490 C.3    23  LEU23       0.1561
     14  C          6.8350  -25.5470    2.3090 C.2    23  LEU23       0.2260
     15  O          7.0920  -24.7010    3.1710 O.2    23  LEU23      -0.2867
     16  CB         5.4710  -24.2290    0.6510 C.3    23  LEU23       0.0270
     17  CG         6.2590  -24.1730   -0.6560 C.3    23  LEU23       0.0019
     18  CD1        5.7460  -25.1520   -1.7070 C.3    23  LEU23       0.0001
     19  CD2        6.1710  -22.7510   -1.1660 C.3    23  LEU23       0.0001
     20  N         10.1970  -24.5500    2.7010 N.3    25  ASN25      -0.1240
     21  CA        10.6530  -23.2770    2.1740 C.3    25  ASN25       0.1653
     22  C         12.0210  -22.9240    2.7210 C.2    25  ASN25       0.2266
     23  O         12.1070  -22.3410    3.8100 O.2    25  ASN25      -0.2867
     24  CB         9.6650  -22.2150    2.6380 C.3    25  ASN25       0.1155
     25  CG         9.7710  -20.9250    1.8590 C.2    25  ASN25       0.2627
     26  OD1       10.8490  -20.4990    1.4490 O.2    25  ASN25      -0.2716
     27  ND2        8.6310  -20.2780    1.6700 N.am   25  ASN25      -0.0877
     28  N         13.8150  -20.6880    1.5950 N.3    27  GLY27      -0.1210
     29  CA        13.8780  -19.2330    1.4890 C.3    27  GLY27       0.1956
     30  C         13.1640  -18.4920    2.6070 C.2    27  GLY27       0.2612
     31  O         12.8820  -17.3040    2.4700 O.2    27  GLY27      -0.2717
     32  N         12.8950  -19.1780    3.7170 N.am   28  ALA28      -0.1965
     33  CA        12.1840  -18.5980    4.8510 C.3    28  ALA28       0.1728
     34  C         12.8760  -18.8870    6.1790 C.2    28  ALA28       0.2616
     35  O         13.2650  -20.0220    6.4610 O.2    28  ALA28      -0.2715
     36  CB        10.7480  -19.1030    4.8920 C.3    28  ALA28       0.0334
     37  N         13.0120  -17.8480    6.9960 N.am   29  ASP29      -0.1957
     38  CA        13.6260  -17.9570    8.3090 C.3    29  ASP29       0.1840
     39  C         12.6790  -18.6470    9.2730 C.2    29  ASP29       0.2622
     40  O         13.1140  -19.4720   10.0780 O.2    29  ASP29      -0.2715
     41  CB        13.9540  -16.5630    8.8420 C.3    29  ASP29       0.1450
     42  CG        15.0130  -15.8520    8.0180 C.2    29  ASP29       0.3671
     43  OD1       15.6470  -16.5010    7.1610 O.co2  29  ASP29      -0.2456
     44  OD2       15.2220  -14.6400    8.2400 O.co2  29  ASP29      -0.2456
     45  N         11.3910  -18.3140    9.1520 N.am   30  ASP30      -0.1971
     46  CA        10.3430  -18.7240   10.0890 C.3    30  ASP30       0.1709
     47  C          9.2390  -19.5780    9.4460 C.2    30  ASP30       0.2293
     48  O          9.1520  -19.6950    8.2140 O.2    30  ASP30      -0.2864
     49  CB         9.6860  -17.4840   10.6920 C.3    30  ASP30       0.1436
     50  CG        10.6840  -16.4030   11.0490 C.2    30  ASP30       0.3671
     51  OD1       11.6260  -16.6900   11.8140 O.co2  30  ASP30      -0.2456
     52  OD2       10.5090  -15.2570   10.5780 O.co2  30  ASP30      -0.2456
     53  N          5.2360  -19.9870    8.8400 N.3    32  VAL32      -0.1245
     54  CA         4.0340  -19.1560    8.8080 C.3    32  VAL32       0.1561
     55  C          2.7850  -19.8470    8.2830 C.2    32  VAL32       0.2260
     56  O          2.7820  -20.3970    7.1930 O.2    32  VAL32      -0.2867
     57  CB         4.2410  -17.9210    7.9540 C.3    32  VAL32       0.0252
     58  CG1        3.3270  -16.8250    8.4140 C.3    32  VAL32       0.0019
     59  CG2        5.6750  -17.4880    8.0280 C.3    32  VAL32       0.0019
     60  N          4.5600   -9.6610   16.0280 N.3    45  LYS45      -0.1231
     61  CA         5.8480   -9.5030   15.3930 C.3    45  LYS45       0.1693
     62  C          5.5780   -9.1520   13.9530 C.2    45  LYS45       0.2592
     63  O          4.5190   -9.4860   13.4220 O.2    45  LYS45      -0.2718
     64  CB         6.6640  -10.7610   15.5040 C.3    45  LYS45       0.0285
     65  CG         8.1210  -10.5920   15.0870 C.3    45  LYS45       0.0035
     66  CD         8.8610  -11.9270   15.0650 C.3    45  LYS45       0.0206
     67  CE        10.3620  -11.7860   15.2370 C.3    45  LYS45       0.1093
     68  NZ        11.0230  -11.2620   14.0420 N.3    45  LYS45      -0.1314
     69  N          6.5140   -8.4350   13.3330 N.am   46  MET46      -0.1965
     70  CA         6.3610   -8.0660   11.9340 C.3    46  MET46       0.1736
     71  C          7.3520   -8.8730   11.1110 C.2    46  MET46       0.2616
     72  O          8.5270   -8.9350   11.4590 O.2    46  MET46      -0.2715
     73  CB         6.5750   -6.5710   11.7530 C.3    46  MET46       0.0427
     74  CG         5.9590   -5.9850   10.5200 C.3    46  MET46       0.0599
     75  SD         6.3490   -4.2120   10.4510 S.3    46  MET46      -0.1393
     76  CE         5.3570   -3.6190   11.7460 C.3    46  MET46       0.0692
     77  N          6.8760   -9.5310   10.0550 N.am   47  ILE47      -0.1963
     78  CA         7.7750  -10.2220    9.1350 C.3    47  ILE47       0.1727
     79  C          7.5940   -9.7310    7.7180 C.2    47  ILE47       0.2617
     80  O          6.5330   -9.2430    7.3490 O.2    47  ILE47      -0.2715
     81  CB         7.6260  -11.7630    9.1590 C.3    47  ILE47       0.0290
     82  CG1        6.3070  -12.1890    8.5220 C.3    47  ILE47       0.0022
     83  CG2        7.8000  -12.3050   10.5650 C.3    47  ILE47       0.0023
     84  CD1        6.2060  -13.6580    8.2840 C.3    47  ILE47       0.0001
     85  N          8.6350   -9.8840    6.9170 N.am   48  GLY48      -0.1940
     86  CA         8.5920   -9.3890    5.5520 C.3    48  GLY48       0.2014
     87  C          9.0040  -10.4130    4.5150 C.2    48  GLY48       0.2639
     88  O          9.6680  -11.3990    4.8280 O.2    48  GLY48      -0.2714
     89  N          8.6080  -10.1670    3.2710 N.am   49  GLY49      -0.1939
     90  CA         8.9940  -11.0140    2.1550 C.3    49  GLY49       0.2014
     91  C          9.1900  -10.1990    0.8930 C.2    49  GLY49       0.2638
     92  O          9.4380   -8.9910    0.9520 O.2    49  GLY49      -0.2714
     93  N          9.0490  -10.8730   -0.2460 N.am   50  ILE50      -0.1977
     94  CA         9.2730  -10.2860   -1.5610 C.3    50  ILE50       0.1596
     95  C          8.3890   -9.0550   -1.8340 C.2    50  ILE50       0.2287
     96  O          8.8390   -8.0620   -2.4380 O.2    50  ILE50      -0.2864
     97  CB         9.1460  -11.3670   -2.6770 C.3    50  ILE50       0.0276
     98  CG1       10.2530  -11.1910   -3.7190 C.3    50  ILE50       0.0022
     99  CG2        7.7560  -11.3750   -3.3080 C.3    50  ILE50       0.0022
    100  CD1       10.5750  -12.4450   -4.4870 C.3    50  ILE50       0.0001
    101  N          5.7060   -6.4170    3.8990 N.3    53  PHE53      -0.1241
    102  CA         5.6180   -6.7190    5.3260 C.3    53  PHE53       0.1605
    103  C          4.2100   -7.0720    5.7950 C.2    53  PHE53       0.2264
    104  O          3.2370   -6.4340    5.3930 O.2    53  PHE53      -0.2867
    105  CB         6.1110   -5.5130    6.1340 C.3    53  PHE53       0.0534
    106  CG         7.6070   -5.4390    6.2800 C.ar   53  PHE53      -0.0203
    107  CD1        8.4060   -5.0100    5.2260 C.ar   53  PHE53      -0.0042
    108  CD2        8.2130   -5.7830    7.4810 C.ar   53  PHE53      -0.0042
    109  CE1        9.7840   -4.9400    5.3600 C.ar   53  PHE53      -0.0003
    110  CE2        9.5850   -5.7190    7.6240 C.ar   53  PHE53      -0.0003
    111  CZ        10.3730   -5.2950    6.5620 C.ar   53  PHE53      -0.0000
    112  N         -0.5630  -14.8430    5.2160 N.3    80  THR80      -0.1204
    113  CA         0.4430  -15.3310    4.2700 C.3    80  THR80       0.1979
    114  C         -0.2830  -16.1210    3.1860 C.2    80  THR80       0.2460
    115  O         -1.0840  -17.0050    3.5090 O.2    80  THR80      -0.2732
    116  CB         1.4720  -16.2650    4.9500 C.3    80  THR80       0.1783
    117  OG1        2.2840  -16.8950    3.9460 O.3    80  THR80      -0.2211
    118  CG2        0.7690  -17.3470    5.7580 C.3    80  THR80       0.0376
    119  N         -0.0070  -15.8160    1.9040 N.am   81  PRO81      -0.2717
    120  CA        -0.7450  -16.4350    0.7940 C.3    81  PRO81       0.1535
    121  C         -0.7400  -17.9610    0.8500 C.2    81  PRO81       0.2598
    122  O         -1.7430  -18.5760    0.4990 O.2    81  PRO81      -0.2715
    123  CB        -0.0040  -15.9510   -0.4550 C.3    81  PRO81       0.0310
    124  CG         0.7630  -14.7710   -0.0400 C.3    81  PRO81       0.0237
    125  CD         1.0220  -14.8710    1.4360 C.3    81  PRO81       0.0939
    126  N          0.3710  -18.5470    1.3000 N.am   82  VAL82      -0.1978
    127  CA         0.5570  -20.0000    1.3830 C.3    82  VAL82       0.1596
    128  C          1.3050  -20.3590    2.6720 C.2    82  VAL82       0.2287
    129  O          2.2440  -19.6540    3.0570 O.2    82  VAL82      -0.2864
    130  CB         1.3840  -20.5130    0.1840 C.3    82  VAL82       0.0276
    131  CG1        1.9980  -21.8860    0.4800 C.3    82  VAL82       0.0022
    132  CG2        0.5350  -20.5460   -1.0790 C.3    82  VAL82       0.0022
    133  N          3.9550  -21.8670    5.0240 N.3    84  ILE84      -0.1245
    134  CA         5.3520  -22.2140    4.7640 C.3    84  ILE84       0.1561
    135  C          6.0330  -22.8180    5.9900 C.2    84  ILE84       0.2260
    136  O          5.8100  -22.3800    7.1210 O.2    84  ILE84      -0.2867
    137  CB         6.1670  -21.0260    4.1770 C.3    84  ILE84       0.0252
    138  CG1        6.3770  -19.9180    5.2160 C.3    84  ILE84       0.0019
    139  CG2        5.4920  -20.4510    2.9200 C.3    84  ILE84       0.0019
    140  CD1        7.0100  -18.6330    4.6210 C.3    84  ILE84       0.0001
@<TRIPOS>BOND
     1     1     2    1
     2     6     7    1
     3     6     5    1
     4     7     8    1
     5     2     5    1
     6     2     3    1
     7     8     9    2
     8   100    98    1
     9    10     9    1
    10     3     4    2
    11     9    11    1
    12    98    97    1
    13    99    97    1
    14    97    94    1
    15    96    95    2
    16    95    94    1
    17    18    17    1
    18    94    93    1
    19    19    17    1
    20   132   130    1
    21    17    16    1
    22   123   124    1
    23   123   120    1
    24    93    91   am
    25   124   125    1
    26   130   131    1
    27   130   127    1
    28   122   121    2
    29    16    13    1
    30   120   121    1
    31   120   119    1
    32   121   126   am
    33    91    92    2
    34    91    90    1
    35   126   127    1
    36   127   128    1
    37   125   119    1
    38    26    25    2
    39    29    28    1
    40    29    30    1
    41    13    14    1
    42    13    12    1
    43    27    25   am
    44    25    24    1
    45   119   114   am
    46    90    89    1
    47    21    24    1
    48    21    20    1
    49    21    22    1
    50    14    15    2
    51    31    30    2
    52    30    32   am
    53   128   129    2
    54    22    23    2
    55   139   137    1
    56   114   115    2
    57   114   113    1
    58    89    87   am
    59    32    33    1
    60   101   102    1
    61   117   116    1
    62   137   134    1
    63   137   138    1
    64   113   116    1
    65   113   112    1
    66    87    88    2
    67    87    86    1
    68   140   138    1
    69   134   133    1
    70   134   135    1
    71    33    36    1
    72    33    34    1
    73   116   118    1
    74   107   109   ar
    75   107   106   ar
    76   102   103    1
    77   102   105    1
    78   109   111   ar
    79   104   103    2
    80    86    85    1
    81   135   136    2
    82   105   106    1
    83    34    35    2
    84    34    37   am
    85   106   108   ar
    86   111   110   ar
    87    85    79   am
    88    37    38    1
    89    43    42   ar
    90    56    55    2
    91    80    79    2
    92   108   110   ar
    93    79    78    1
    94    57    59    1
    95    57    58    1
    96    57    54    1
    97    42    44   ar
    98    42    41    1
    99    48    47    2
   100    55    54    1
   101    84    82    1
   102    38    41    1
   103    38    39    1
   104    82    81    1
   105    54    53    1
   106    78    81    1
   107    78    77    1
   108    45    39   am
   109    45    46    1
   110    81    83    1
   111    39    40    2
   112    47    46    1
   113    77    71   am
   114    46    49    1
   115    75    74    1
   116    75    76    1
   117    74    73    1
   118    52    50   ar
   119    49    50    1
   120    50    51   ar
   121    71    72    2
   122    71    70    1
   123    73    70    1
   124    70    69    1
   125    69    62   am
   126    63    62    2
   127    62    61    1
   128    68    67    1
   129    66    65    1
   130    66    67    1
   131    65    64    1
   132    61    64    1
   133    61    60    1
