@<TRIPOS>MOLECULE
tmp/3d3zA00.pdb
 85 82 0 0 0
SMALL
GASTEIGER

@<TRIPOS>ATOM
      1  N         37.8060   13.0620   10.2700 N.3    69  SER69      -0.1202
      2  CA        37.0560   12.9720   11.5000 C.3    69  SER69       0.2020
      3  C         36.4470   14.3000   11.9580 C.2    69  SER69       0.2619
      4  O         35.6710   14.3260   12.8550 O.2    69  SER69      -0.2717
      5  CB        37.9390   12.4060   12.6060 C.3    69  SER69       0.2103
      6  OG        38.7800   13.3840   13.1130 O.3    69  SER69      -0.2182
      7  N         36.8760   15.3820   11.3320 N.am   70  ARG70      -0.1965
      8  CA        36.3830   16.6970   11.6000 C.3    70  ARG70       0.1729
      9  C         35.7960   17.3480   10.3490 C.2    70  ARG70       0.2616
     10  O         35.8440   18.5170   10.2440 O.2    70  ARG70      -0.2715
     11  CB        37.4620   17.6140   12.2200 C.3    70  ARG70       0.0348
     12  CG        37.8370   17.2520   13.6850 C.3    70  ARG70       0.0492
     13  CD        38.7380   18.2710   14.3030 C.3    70  ARG70       0.2205
     14  NE        39.9330   18.4320   13.5280 N.pl3  70  ARG70      -0.0865
     15  CZ        40.4020   19.5770   13.0540 C.cat  70  ARG70       0.5346
     16  NH1       39.8230   20.7380   13.3090 N.pl3  70  ARG70       0.1354
     17  NH2       41.5100   19.5270   12.3500 N.pl3  70  ARG70       0.1354
     18  N         35.2670   16.5540    9.4440 N.am   71  GLU71      -0.1963
     19  CA        34.5080   17.0450    8.2900 C.3    71  GLU71       0.1733
     20  C         33.0260   16.9700    8.5690 C.2    71  GLU71       0.2616
     21  O         32.5470   16.0290    9.1790 O.2    71  GLU71      -0.2715
     22  CB        34.8420   16.2500    7.0360 C.3    71  GLU71       0.0429
     23  CG        36.2180   16.5200    6.4820 C.3    71  GLU71       0.1163
     24  CD        36.4610   15.6670    5.2390 C.2    71  GLU71       0.3649
     25  OE1       35.4710   15.2610    4.6120 O.co2  71  GLU71      -0.2457
     26  OE2       37.6120   15.3500    4.9280 O.co2  71  GLU71      -0.2457
     27  N         32.3020   18.0050    8.1550 N.am   72  TYR72      -0.1960
     28  CA        30.9340   18.2060    8.5520 C.3    72  TYR72       0.1771
     29  C         30.0720   18.5240    7.3620 C.2    72  TYR72       0.2620
     30  O         30.5530   19.0300    6.3300 O.2    72  TYR72      -0.2715
     31  CB        30.8540   19.3500    9.5840 C.3    72  TYR72       0.0574
     32  CG        31.6500   18.9840   10.8250 C.ar   72  TYR72      -0.0198
     33  CD1       31.2320   17.9260   11.6360 C.ar   72  TYR72      -0.0009
     34  CD2       32.8160   19.6430   11.1600 C.ar   72  TYR72      -0.0009
     35  CE1       31.9450   17.5430   12.7560 C.ar   72  TYR72       0.0417
     36  CE2       33.5520   19.2670   12.2830 C.ar   72  TYR72       0.0417
     37  CZ        33.1050   18.2090   13.0730 C.ar   72  TYR72       0.1957
     38  OH        33.8310   17.8240   14.1850 O.3    72  TYR72      -0.2866
     39  N         28.8010   18.1990    7.5250 N.am   73  SER73      -0.1936
     40  CA        27.7770   18.5110    6.5460 C.3    73  SER73       0.2055
     41  C         26.6600   19.3000    7.1850 C.2    73  SER73       0.2643
     42  O         25.5160   19.2680    6.7430 O.2    73  SER73      -0.2714
     43  CB        27.2840   17.2120    5.8910 C.3    73  SER73       0.2130
     44  OG        26.5910   16.3960    6.8220 O.3    73  SER73      -0.2179
     45  N         26.9920   20.0360    8.2350 N.am   74  ASN74      -0.1971
     46  CA        26.0180   20.8050    8.9620 C.3    74  ASN74       0.1688
     47  C         26.5320   22.1080    9.5280 C.2    74  ASN74       0.2292
     48  O         26.2440   22.4560   10.6920 O.2    74  ASN74      -0.2864
     49  CB        25.4250   19.9570   10.0970 C.3    74  ASN74       0.1181
     50  CG        26.4840   19.5210   11.1330 C.2    74  ASN74       0.2629
     51  OD1       27.7070   19.6230   10.9120 O.2    74  ASN74      -0.2716
     52  ND2       25.9920   19.1050   12.3010 N.am   74  ASN74      -0.0877
     53  N         23.8960   24.5870   11.0440 N.3    77  SER77      -0.1202
     54  CA        23.5070   24.1070   12.3670 C.3    77  SER77       0.2020
     55  C         24.5680   24.2770   13.4510 C.2    77  SER77       0.2618
     56  O         24.2200   24.5900   14.5940 O.2    77  SER77      -0.2717
     57  CB        23.1740   22.6340   12.2810 C.3    77  SER77       0.2103
     58  OG        22.0410   22.4970   11.4340 O.3    77  SER77      -0.2182
     59  N         25.8400   24.1120   13.0930 N.am   78  ILE78      -0.1979
     60  CA        26.9260   24.2820   14.0600 C.3    78  ILE78       0.1595
     61  C         26.9590   25.7430   14.5000 C.2    78  ILE78       0.2287
     62  O         27.0030   26.0470   15.7030 O.2    78  ILE78      -0.2864
     63  CB        28.2570   23.8450   13.4890 C.3    78  ILE78       0.0276
     64  CG1       28.3280   22.3140   13.3650 C.3    78  ILE78       0.0022
     65  CG2       29.3430   24.3490   14.3450 C.3    78  ILE78       0.0022
     66  CD1       29.4120   21.7890   12.5370 C.3    78  ILE78       0.0001
     67  N         23.8000   26.5340   16.7120 N.3    81  ALA81      -0.1245
     68  CA        24.0090   25.9540   18.0390 C.3    81  ALA81       0.1562
     69  C         24.9840   26.7520   18.9060 C.2    81  ALA81       0.2260
     70  O         24.8370   26.8040   20.1180 O.2    81  ALA81      -0.2867
     71  CB        24.4330   24.5170   17.9000 C.3    81  ALA81       0.0290
     72  N         32.5270   20.6360   21.5980 N.3   132  ALA132     -0.1231
     73  CA        32.3640   20.0430   20.2680 C.3   132  ALA132      0.1694
     74  C         32.1560   21.1000   19.1300 C.2   132  ALA132      0.2588
     75  O         31.2020   21.9190   19.1640 O.2   132  ALA132     -0.2718
     76  CB        31.2080   19.0420   20.2710 C.3   132  ALA132      0.0304
     77  N         33.0640   21.0750   18.1570 N.am  133  GLN133     -0.2033
     78  CA        33.0410   21.9450   16.9440 C.3   133  GLN133      0.1287
     79  C         33.2420   23.4290   17.2120 C.3   133  GLN133      0.2036
     80  O         32.9140   24.2940   16.3170 O.3   133  GLN133     -0.2185
     81  CB        31.7630   21.7260   16.1180 C.3   133  GLN133      0.0340
     82  CG        31.6020   20.3510   15.4430 C.3   133  GLN133      0.0904
     83  CD        31.1140   19.2300   16.3540 C.2   133  GLN133      0.2608
     84  OE1       30.1740   19.4060   17.1100 O.2   133  GLN133     -0.2717
     85  NE2       31.7950   18.1060   16.3220 N.am  133  GLN133     -0.0878
@<TRIPOS>BOND
     1    25    24   ar
     2    26    24   ar
     3    24    23    1
     4    43    40    1
     5    43    44    1
     6    30    29    2
     7    23    22    1
     8    40    41    1
     9    40    39    1
    10    42    41    2
    11    22    19    1
    12    41    45   am
    13    29    39   am
    14    29    28    1
    15    27    28    1
    16    27    20   am
    17    45    46    1
    18    19    20    1
    19    19    18    1
    20    28    31    1
    21    20    21    2
    22    46    47    1
    23    46    49    1
    24    18     9   am
    25    47    48    2
    26    31    32    1
    27    49    50    1
    28    10     9    2
    29     1     2    1
    30     9     8    1
    31    32    34   ar
    32    32    33   ar
    33    51    50    2
    34    53    54    1
    35    50    52   am
    36    34    36   ar
    37     7     8    1
    38     7     3   am
    39    58    57    1
    40     2     3    1
    41     2     5    1
    42     8    11    1
    43    33    35   ar
    44     3     4    2
    45    11    12    1
    46    57    54    1
    47    36    37   ar
    48    17    15    1
    49    54    55    1
    50    66    64    1
    51     5     6    1
    52    35    37   ar
    53    15    16    1
    54    15    14    2
    55    37    38    1
    56    59    55   am
    57    59    60    1
    58    64    63    1
    59    55    56    2
    60    63    60    1
    61    63    65    1
    62    14    13    1
    63    12    13    1
    64    60    61    1
    65    61    62    2
    66    82    81    1
    67    82    83    1
    68    81    78    1
    69    80    79    1
    70    85    83   am
    71    83    84    2
    72    67    68    1
    73    78    79    1
    74    78    77    1
    75    71    68    1
    76    68    69    1
    77    77    74   am
    78    69    70    2
    79    74    75    2
    80    74    73    1
    81    73    76    1
    82    73    72    1
