@<TRIPOS>MOLECULE
tmp/3d40A00.pdb
 81 73 0 0 0
SMALL
GASTEIGER

@<TRIPOS>ATOM
      1  N         -0.5930   33.4580   36.7110 N.3    18  LYS18      -0.1245
      2  CA        -0.3380   32.6720   35.5030 C.3    18  LYS18       0.1561
      3  C          0.8430   31.7710   35.7460 C.2    18  LYS18       0.2260
      4  O          1.9040   32.2330   36.1590 O.2    18  LYS18      -0.2867
      5  CB        -0.0730   33.6070   34.2990 C.3    18  LYS18       0.0271
      6  CG         0.0400   32.8690   32.9650 C.3    18  LYS18       0.0035
      7  CD         1.4940   32.7090   32.5640 C.3    18  LYS18       0.0206
      8  CE         1.6890   31.7600   31.3810 C.3    18  LYS18       0.1093
      9  NZ         3.1020   31.8470   30.8890 N.3    18  LYS18      -0.1314
     10  N          3.6040   29.3520   34.1380 N.3    20  GLY20      -0.1210
     11  CA         4.2200   29.0410   32.8770 C.3    20  GLY20       0.1956
     12  C          4.2610   27.5530   32.5740 C.2    20  GLY20       0.2612
     13  O          4.5820   26.7120   33.4560 O.2    20  GLY20      -0.2717
     14  N          4.0370   27.2330   31.3010 N.am   21  GLY21      -0.1942
     15  CA         4.1060   25.8550   30.8540 C.3    21  GLY21       0.2014
     16  C          5.4560   25.2370   31.1490 C.2    21  GLY21       0.2639
     17  O          5.5280   24.0160   31.4080 O.2    21  GLY21      -0.2714
     18  N          6.5400   26.0380   31.1200 N.am   22  SER22      -0.1949
     19  CA         7.8870   25.4590   31.3610 C.3    22  SER22       0.1924
     20  C          8.0180   24.8650   32.7720 C.2    22  SER22       0.2314
     21  O          8.9590   24.0980   33.0470 O.2    22  SER22      -0.2863
     22  CB         9.0010   26.4990   31.1330 C.3    22  SER22       0.2116
     23  OG         8.9320   27.4910   32.1200 O.3    22  SER22      -0.2180
     24  N          9.0400   20.7620   26.4970 N.3    27  LYS27      -0.1245
     25  CA         8.8380   20.9140   25.0550 C.3    27  LYS27       0.1561
     26  C          9.1990   19.6330   24.3140 C.2    27  LYS27       0.2260
     27  O          8.5170   19.2530   23.3580 O.2    27  LYS27      -0.2867
     28  CB         9.6510   22.0970   24.5210 C.3    27  LYS27       0.0271
     29  CG         9.3960   23.4080   25.2540 C.3    27  LYS27       0.0035
     30  CD         8.0030   23.9500   24.9790 C.3    27  LYS27       0.0206
     31  CE         7.7130   25.2160   25.7660 C.3    27  LYS27       0.1093
     32  NZ         7.2560   24.9310   27.1550 N.3    27  LYS27      -0.1314
     33  N         -0.3180   28.2770   31.4140 N.3    61  GLY61      -0.1210
     34  CA         0.4190   28.2390   30.1530 C.3    61  GLY61       0.1956
     35  C          0.3980   26.8250   29.5770 C.2    61  GLY61       0.2612
     36  O         -0.3930   25.9810   29.9940 O.2    61  GLY61      -0.2717
     37  N          1.2560   26.5320   28.6200 N.am   62  GLY62      -0.1956
     38  CA         1.3110   25.1760   28.0860 C.3    62  GLY62       0.1869
     39  C          0.1320   24.9020   27.1730 C.2    62  GLY62       0.2309
     40  O         -0.5900   25.8170   26.7640 O.2    62  GLY62      -0.2863
     41  N         -1.6720   34.3780   23.3360 N.3   145  SER145     -0.1202
     42  CA        -0.8410   33.7460   24.3440 C.3   145  SER145      0.2020
     43  C         -1.4700   33.7310   25.7400 C.2   145  SER145      0.2619
     44  O         -2.1290   34.7210   26.1550 O.2   145  SER145     -0.2717
     45  CB         0.4910   34.5480   24.4430 C.3   145  SER145      0.2103
     46  OG         1.2740   34.0160   25.4950 O.3   145  SER145     -0.2182
     47  N         -1.2000   32.6530   26.5150 N.am  146  SER146     -0.1937
     48  CA        -1.5810   32.6700   27.9480 C.3   146  SER146      0.2055
     49  C         -1.0460   33.9080   28.6960 C.2   146  SER146      0.2643
     50  O         -1.6770   34.4250   29.6080 O.2   146  SER146     -0.2714
     51  CB        -1.0490   31.3970   28.6240 C.3   146  SER146      0.2130
     52  OG         0.3780   31.2830   28.5090 O.3   146  SER146     -0.2179
     53  N          0.1150   34.3790   28.2440 N.am  147  ASP147     -0.1971
     54  CA         0.7150   35.5340   28.8850 C.3   147  ASP147      0.1709
     55  C         -0.1090   36.8260   28.7390 C.2   147  ASP147      0.2293
     56  O          0.0920   37.7410   29.5380 O.2   147  ASP147     -0.2864
     57  CB         2.1290   35.7450   28.2790 C.3   147  ASP147      0.1436
     58  CG         3.1700   34.7740   28.8570 C.2   147  ASP147      0.3671
     59  OD1        3.0950   34.5400   30.0680 O.co2 147  ASP147     -0.2456
     60  OD2        4.0870   34.4030   28.0910 O.co2 147  ASP147     -0.2456
     61  N          7.4670   32.0440   36.1710 N.3   167  THR167     -0.1218
     62  CA         8.2660   31.5610   35.0690 C.3   167  THR167      0.1862
     63  C          9.5330   30.8640   35.5840 C.2   167  THR167      0.2287
     64  O          9.6370   30.6050   36.7700 O.2   167  THR167     -0.2866
     65  CB         8.5950   32.6760   34.0820 C.3   167  THR167      0.1770
     66  OG1        9.0200   32.0410   32.8590 O.3   167  THR167     -0.2211
     67  CG2        9.6170   33.6350   34.6320 C.3   167  THR167      0.0375
     68  N          8.9670   34.9650   24.0890 N.3   202  ALA202     -0.1245
     69  CA         8.0040   34.8110   25.1720 C.3   202  ALA202      0.1562
     70  C          8.2040   35.8460   26.2920 C.2   202  ALA202      0.2260
     71  O          7.2170   36.3510   26.8070 O.2   202  ALA202     -0.2867
     72  CB         8.0020   33.3980   25.7230 C.3   202  ALA202      0.0290
     73  N          5.4600   38.6590   27.5860 N.3   206  LYS206     -0.1245
     74  CA         5.1350   38.9310   29.0020 C.3   206  LYS206      0.1561
     75  C          5.2510   40.4050   29.3330 C.2   206  LYS206      0.2260
     76  O          4.3970   40.9860   29.9930 O.2   206  LYS206     -0.2867
     77  CB         6.0660   38.1410   29.9540 C.3   206  LYS206      0.0271
     78  CG         5.7890   36.6210   29.8720 C.3   206  LYS206      0.0035
     79  CD         6.8720   35.8550   30.6700 C.3   206  LYS206      0.0206
     80  CE         6.5100   34.3780   30.7940 C.3   206  LYS206      0.1093
     81  NZ         6.4650   33.6710   29.5090 N.3   206  LYS206     -0.1314
@<TRIPOS>BOND
     1    41    42    1
     2    27    26    2
     3    68    69    1
     4    26    25    1
     5    42    45    1
     6    42    43    1
     7    45    46    1
     8    28    25    1
     9    28    29    1
    10    30    29    1
    11    30    31    1
    12    25    24    1
    13    69    72    1
    14    69    70    1
    15    43    44    2
    16    43    47   am
    17    31    32    1
    18    70    71    2
    19    47    48    1
    20    40    39    2
    21    39    38    1
    22    73    74    1
    23    48    51    1
    24    48    49    1
    25    38    37    1
    26    60    58   ar
    27    53    49   am
    28    53    54    1
    29    57    58    1
    30    57    54    1
    31    52    51    1
    32    37    35   am
    33    49    50    2
    34    55    54    1
    35    55    56    2
    36    58    59   ar
    37    74    75    1
    38    74    77    1
    39    75    76    2
    40    81    80    1
    41    35    36    2
    42    35    34    1
    43    78    77    1
    44    78    79    1
    45    34    33    1
    46    79    80    1
    47    15    16    1
    48    15    14    1
    49     9     8    1
    50    18    16   am
    51    18    19    1
    52    22    19    1
    53    22    23    1
    54    16    17    2
    55    14    12   am
    56    19    20    1
    57     8     7    1
    58     7     6    1
    59    12    11    1
    60    12    13    2
    61    20    21    2
    62    66    65    1
    63    11    10    1
    64     6     5    1
    65    65    67    1
    66    65    62    1
    67     5     2    1
    68    62    63    1
    69    62    61    1
    70     2     3    1
    71     2     1    1
    72    63    64    2
    73     3     4    2
