@<TRIPOS>MOLECULE
tmp/3d41A00.pdb
 173 162 0 0 0
SMALL
GASTEIGER

@<TRIPOS>ATOM
      1  N         27.8490   16.1140   10.5150 N.3    18  LYS18      -0.1245
      2  CA        27.4080   15.5170    9.2710 C.3    18  LYS18       0.1561
      3  C         27.2840   14.0100    9.4790 C.2    18  LYS18       0.2260
      4  O         28.2050   13.3510    9.9600 O.2    18  LYS18      -0.2867
      5  CB        28.3370   15.9130    8.1130 C.3    18  LYS18       0.0271
      6  CG        27.8970   15.4430    6.7040 C.3    18  LYS18       0.0035
      7  CD        28.3660   13.9880    6.4040 C.3    18  LYS18       0.0206
      8  CE        27.5550   13.3670    5.2720 C.3    18  LYS18       0.1093
      9  NZ        28.2620   12.2440    4.5440 N.3    18  LYS18      -0.1314
     10  N         26.5360   10.3370    7.7490 N.3    20  GLY20      -0.1210
     11  CA        26.5820    9.6170    6.4730 C.3    20  GLY20       0.1956
     12  C         25.2450    8.9850    6.1240 C.2    20  GLY20       0.2612
     13  O         24.5590    8.4540    6.9870 O.2    20  GLY20      -0.2717
     14  N         24.8480    9.0500    4.8570 N.am   21  GLY21      -0.1942
     15  CA        23.6260    8.3780    4.4160 C.3    21  GLY21       0.2014
     16  C         23.6030    6.9000    4.7830 C.2    21  GLY21       0.2639
     17  O         22.6570    6.4370    5.4010 O.2    21  GLY21      -0.2714
     18  N         24.6630    6.1790    4.4110 N.am   22  SER22      -0.1949
     19  CA        24.8530    4.7410    4.6850 C.3    22  SER22       0.1924
     20  C         24.5300    4.2530    6.1120 C.2    22  SER22       0.2314
     21  O         24.2280    3.0840    6.3190 O.2    22  SER22      -0.2863
     22  CB        26.3010    4.3720    4.3640 C.3    22  SER22       0.2116
     23  OG        27.1860    4.8670    5.3560 O.3    22  SER22      -0.2180
     24  N         21.7530    2.6780    0.2360 N.3    27  LYS27      -0.1245
     25  CA        22.0120    3.2830   -1.1010 C.3    27  LYS27       0.1561
     26  C         21.2980    2.6180   -2.2920 C.2    27  LYS27       0.2260
     27  O         20.6560    3.3030   -3.0990 O.2    27  LYS27      -0.2867
     28  CB        23.5280    3.3160   -1.4220 C.3    27  LYS27       0.0271
     29  CG        24.3470    4.5270   -0.9240 C.3    27  LYS27       0.0035
     30  CD        25.6910    4.5430   -1.6860 C.3    27  LYS27       0.0206
     31  CE        26.8740    5.0360   -0.8420 C.3    27  LYS27       0.1093
     32  NZ        27.7710    3.9220   -0.3250 N.3    27  LYS27      -0.1314
     33  N         21.8830    9.2650    1.2050 N.3    63  GLY63      -0.1225
     34  CA        21.4580    7.8820    1.2600 C.3    63  GLY63       0.1811
     35  C         20.8830    7.4550   -0.0690 C.2    63  GLY63       0.2280
     36  O         21.3150    7.9710   -1.1130 O.2    63  GLY63      -0.2866
     37  N         22.0770    9.5510   -3.6020 N.3    67  HIS67      -0.1241
     38  CA        22.8270    8.6700   -4.4990 C.3    67  HIS67       0.1621
     39  C         21.9180    8.1220   -5.6070 C.2    67  HIS67       0.2264
     40  O         22.3510    7.9790   -6.7500 O.2    67  HIS67      -0.2867
     41  CB        23.5570    7.5420   -3.7340 C.3    67  HIS67       0.0745
     42  CG        24.7410    8.0100   -2.9160 C.ar   67  HIS67       0.0817
     43  ND1       26.0070    8.1730   -3.4480 N.ar   67  HIS67      -0.2268
     44  CD2       24.8540    8.3110   -1.5960 C.ar   67  HIS67       0.1154
     45  CE1       26.8390    8.5710   -2.4990 C.ar   67  HIS67       0.1986
     46  NE2       26.1660    8.6570   -1.3650 N.ar   67  HIS67      -0.2212
     47  N         29.0260   16.3240    2.5190 N.3   159  ASP159     -0.1239
     48  CA        30.3990   16.4740    3.0230 C.3   159  ASP159      0.1674
     49  C         31.0540   17.8470    2.8910 C.2   159  ASP159      0.2266
     50  O         31.8380   18.2570    3.7640 O.2   159  ASP159     -0.2867
     51  CB        31.3000   15.4160    2.4020 C.3   159  ASP159      0.1410
     52  CG        31.1710   14.0900    3.0980 C.2   159  ASP159      0.3668
     53  OD1       32.0760   13.7630    3.8690 O.co2 159  ASP159     -0.2456
     54  OD2       30.1480   13.4010    2.9350 O.co2 159  ASP159     -0.2456
     55  N         30.2500   11.9340   10.7320 N.3   178  LEU178     -0.1231
     56  CA        30.0140   10.5840   11.2400 C.3   178  LEU178      0.1693
     57  C         29.8660    9.6130   10.0700 C.2   178  LEU178      0.2593
     58  O         29.0660    9.8440    9.1530 O.2   178  LEU178     -0.2718
     59  CB        28.8070   10.5580   12.1890 C.3   178  LEU178      0.0284
     60  CG        28.8490   11.5830   13.3240 C.3   178  LEU178      0.0019
     61  CD1       27.4300   11.8790   13.8740 C.3   178  LEU178      0.0001
     62  CD2       29.8080   11.1620   14.4310 C.3   178  LEU178      0.0001
     63  N         30.6470    8.5300   10.1000 N.am  179  THR179     -0.1939
     64  CA        30.8340    7.7000    8.9200 C.3   179  THR179      0.2028
     65  C         30.8360    6.2250    9.2950 C.2   179  THR179      0.2642
     66  O         30.5300    5.8720   10.4450 O.2   179  THR179     -0.2714
     67  CB        32.0670    8.1820    8.0540 C.3   179  THR179      0.1808
     68  OG1       32.1170    7.4630    6.8260 O.3   179  THR179     -0.2208
     69  CG2       33.3800    8.0280    8.7650 C.3   179  THR179      0.0379
     70  N         31.1290    5.3550    8.3280 N.am  180  ASP180     -0.1957
     71  CA        31.0800    3.9180    8.5740 C.3   180  ASP180      0.1840
     72  C         32.4770    3.3050    8.7320 C.2   180  ASP180      0.2621
     73  O         32.6680    2.1100    8.5640 O.2   180  ASP180     -0.2715
     74  CB        30.2240    3.1960    7.5080 C.3   180  ASP180      0.1450
     75  CG        30.8980    3.1140    6.1390 C.2   180  ASP180      0.3671
     76  OD1       31.8430    3.8770    5.8360 O.co2 180  ASP180     -0.2456
     77  OD2       30.4600    2.2640    5.3500 O.co2 180  ASP180     -0.2456
     78  N         33.4470    4.1500    9.0590 N.am  181  VAL181     -0.1977
     79  CA        34.7700    3.7070    9.4420 C.3   181  VAL181      0.1596
     80  C         35.2020    4.5610   10.5980 C.2   181  VAL181      0.2287
     81  O         34.6030    5.5890   10.8740 O.2   181  VAL181     -0.2864
     82  CB        35.8120    3.8610    8.3090 C.3   181  VAL181      0.0276
     83  CG1       35.8090    2.6340    7.3940 C.3   181  VAL181      0.0022
     84  CG2       35.6100    5.1890    7.5690 C.3   181  VAL181      0.0022
     85  N         37.9050    6.2720   10.9160 N.3   183  GLY183     -0.1210
     86  CA        38.8210    7.3300   10.5070 C.3   183  GLY183      0.1956
     87  C         39.4690    6.8570    9.2270 C.2   183  GLY183      0.2612
     88  O         39.0410    5.8570    8.6550 O.2   183  GLY183     -0.2717
     89  N         40.4950    7.5680    8.7690 N.am  184  ILE184     -0.1965
     90  CA        41.2980    7.1090    7.6190 C.3   184  ILE184      0.1727
     91  C         42.2010    5.9460    8.0000 C.2   184  ILE184      0.2616
     92  O         43.1190    6.1160    8.8150 O.2   184  ILE184     -0.2715
     93  CB        42.2220    8.2290    7.0580 C.3   184  ILE184      0.0290
     94  CG1       41.4470    9.5360    6.8400 C.3   184  ILE184      0.0022
     95  CG2       43.0060    7.7250    5.8230 C.3   184  ILE184      0.0023
     96  CD1       40.9590    9.8120    5.4330 C.3   184  ILE184      0.0001
     97  N         41.9650    4.7750    7.4130 N.am  185  VAL185     -0.1977
     98  CA        42.8500    3.6320    7.6570 C.3   185  VAL185      0.1596
     99  C         44.0300    3.5300    6.6860 C.2   185  VAL185      0.2287
    100  O         43.8450    3.5630    5.4720 O.2   185  VAL185     -0.2864
    101  CB        42.0990    2.2590    7.8810 C.3   185  VAL185      0.0276
    102  CG1       40.5910    2.3680    7.7510 C.3   185  VAL185      0.0022
    103  CG2       42.6630    1.1540    7.0140 C.3   185  VAL185      0.0022
    104  N         46.4710    7.2150    1.4150 N.3   205  ALA205     -0.1231
    105  CA        45.8930    6.0000    1.9940 C.3   205  ALA205      0.1694
    106  C         44.5520    5.5610    1.4130 C.2   205  ALA205      0.2592
    107  O         44.1410    4.4220    1.6300 O.2   205  ALA205     -0.2718
    108  CB        45.7670    6.1500    3.4840 C.3   205  ALA205      0.0304
    109  N         43.8630    6.4460    0.6970 N.am  206  LEU206     -0.1966
    110  CA        42.5110    6.1480    0.2350 C.3   206  LEU206      0.1728
    111  C         42.4780    5.1060   -0.8710 C.2   206  LEU206      0.2616
    112  O         43.3400    5.0870   -1.7500 O.2   206  LEU206     -0.2715
    113  CB        41.7960    7.4070   -0.2310 C.3   206  LEU206      0.0311
    114  CG        41.9840    8.5750    0.7140 C.3   206  LEU206      0.0022
    115  CD1       41.3560    9.8040    0.1290 C.3   206  LEU206      0.0001
    116  CD2       41.4320    8.2480    2.0910 C.3   206  LEU206      0.0001
    117  N         41.4810    4.2300   -0.8180 N.am  207  TRP207     -0.1974
    118  CA        41.2810    3.2400   -1.8690 C.3   207  TRP207      0.1640
    119  C         40.0210    3.5810   -2.6790 C.2   207  TRP207      0.2290
    120  O         39.2060    4.4340   -2.3060 O.2   207  TRP207     -0.2864
    121  CB        41.2520    1.8050   -1.3030 C.3   207  TRP207      0.0576
    122  CG        40.1880    1.5760   -0.2560 C.ar  207  TRP207      0.0006
    123  CD1       38.8540    1.4340   -0.4790 C.ar  207  TRP207      0.0946
    124  CD2       40.3710    1.4520    1.1670 C.ar  207  TRP207      0.0152
    125  NE1       38.1880    1.2370    0.7000 N.ar  207  TRP207     -0.2442
    126  CE2       39.0890    1.2390    1.7330 C.ar  207  TRP207      0.0810
    127  CE3       41.4900    1.4910    2.0190 C.ar  207  TRP207      0.0012
    128  CZ2       38.8840    1.0750    3.1300 C.ar  207  TRP207      0.0191
    129  CZ3       41.2880    1.3230    3.4120 C.ar  207  TRP207      0.0001
    130  CH2       39.9890    1.1280    3.9450 C.ar  207  TRP207      0.0015
    131  N         36.3920    2.8330   -3.9940 N.3   209  SER209     -0.1217
    132  CA        35.1460    2.0730   -3.7860 C.3   209  SER209      0.1889
    133  C         34.9980    0.8430   -4.7330 C.2   209  SER209      0.2288
    134  O         35.7400    0.6980   -5.7300 O.2   209  SER209     -0.2866
    135  CB        33.9410    3.0020   -3.9700 C.3   209  SER209      0.2089
    136  OG        34.0730    4.1310   -3.1400 O.3   209  SER209     -0.2183
    137  N         29.6450    4.6570   -5.8130 N.3   213  ASP213     -0.1239
    138  CA        29.5550    5.9130   -5.0340 C.3   213  ASP213      0.1674
    139  C         29.5950    7.2200   -5.8420 C.2   213  ASP213      0.2266
    140  O         30.6580    7.6600   -6.3000 O.2   213  ASP213     -0.2867
    141  CB        30.6060    5.9310   -3.9170 C.3   213  ASP213      0.1410
    142  CG        30.2020    6.8090   -2.7570 C.2   213  ASP213      0.3668
    143  OD1       30.1780    8.0310   -2.9160 O.co2 213  ASP213     -0.2456
    144  OD2       29.9210    6.2600   -1.6750 O.co2 213  ASP213     -0.2456
    145  N         29.3020   10.4150   -5.0200 N.3   215  THR215     -0.1218
    146  CA        29.9180   11.6190   -4.4640 C.3   215  THR215      0.1862
    147  C         31.3240   11.4540   -3.8780 C.2   215  THR215      0.2287
    148  O         31.7310   12.2450   -3.0430 O.2   215  THR215     -0.2866
    149  CB        28.9900   12.2870   -3.4180 C.3   215  THR215      0.1770
    150  OG1       28.5490   11.3040   -2.4760 O.3   215  THR215     -0.2211
    151  CG2       27.7900   12.9120   -4.0910 C.3   215  THR215      0.0375
    152  N         33.0620    9.1980   -1.9820 N.3   217  ALA217     -0.1231
    153  CA        33.4310    8.4930   -0.7300 C.3   217  ALA217      0.1694
    154  C         34.4090    9.2700    0.1580 C.2   217  ALA217      0.2591
    155  O         34.1510   10.4070    0.5330 O.2   217  ALA217     -0.2718
    156  CB        33.9500    7.0890   -1.0320 C.3   217  ALA217      0.0304
    157  N         35.5320    8.6680    0.4890 N.am  218  MET218     -0.1979
    158  CA        36.4710    9.2600    1.4290 C.3   218  MET218      0.1605
    159  C         37.2510   10.4250    0.8550 C.2   218  MET218      0.2287
    160  O         37.6760   11.2940    1.6080 O.2   218  MET218     -0.2864
    161  CB        37.4430    8.1980    1.9470 C.3   218  MET218      0.0413
    162  CG        38.2810    8.6570    3.1340 C.3   218  MET218      0.0598
    163  SD        37.3030    9.1960    4.5540 S.3   218  MET218     -0.1393
    164  CE        37.1090    7.6470    5.4210 C.3   218  MET218      0.0692
    165  N         35.2810   13.5700    1.2870 N.3   221  LYS221     -0.1245
    166  CA        35.2850   13.7360    2.7270 C.3   221  LYS221      0.1561
    167  C         36.5430   14.4450    3.2000 C.2   221  LYS221      0.2260
    168  O         36.4630   15.4230    3.9070 O.2   221  LYS221     -0.2867
    169  CB        35.1220   12.3890    3.4220 C.3   221  LYS221      0.0271
    170  CG        34.5960   12.5060    4.8330 C.3   221  LYS221      0.0035
    171  CD        34.2910   11.1480    5.4710 C.3   221  LYS221      0.0206
    172  CE        33.2280   10.3550    4.7180 C.3   221  LYS221      0.1093
    173  NZ        31.9100   11.0480    4.6500 N.3   221  LYS221     -0.1314
@<TRIPOS>BOND
     1    40    39    2
     2   140   139    2
     3   139   138    1
     4   137   138    1
     5   134   133    2
     6    39    38    1
     7   138   141    1
     8   145   146    1
     9   133   132    1
    10    38    41    1
    11    38    37    1
    12   146   147    1
    13   146   149    1
    14   151   149    1
    15   131   132    1
    16   135   132    1
    17   135   136    1
    18   141   142    1
    19   147   148    2
    20    41    42    1
    21    43    42   ar
    22    43    45   ar
    23   149   150    1
    24    27    26    2
    25   143   142   ar
    26    42    44   ar
    27   142   144   ar
    28   119   120    2
    29   119   118    1
    30    45    46   ar
    31    26    25    1
    32   152   153    1
    33   118   121    1
    34   118   117    1
    35   112   111    2
    36    30    29    1
    37    30    31    1
    38    44    46   ar
    39    28    25    1
    40    28    29    1
    41   121   122    1
    42    36    35    2
    43    25    24    1
    44   156   153    1
    45   111   117   am
    46   111   110    1
    47    31    32    1
    48   153   154    1
    49   123   122   ar
    50   123   125   ar
    51   122   124   ar
    52   113   110    1
    53   113   114    1
    54    35    34    1
    55   115   114    1
    56   154   157   am
    57   154   155    2
    58   110   109    1
    59   157   158    1
    60   109   106   am
    61   125   126   ar
    62   114   116    1
    63   159   158    1
    64   159   160    2
    65   124   126   ar
    66   124   127   ar
    67    33    34    1
    68   165   166    1
    69   106   107    2
    70   106   105    1
    71   104   105    1
    72   158   161    1
    73   126   128   ar
    74   161   162    1
    75   105   108    1
    76   127   129   ar
    77    51    48    1
    78    51    52    1
    79    47    48    1
    80   166   167    1
    81   166   169    1
    82    49    48    1
    83    49    50    2
    84    54    52   ar
    85    52    53   ar
    86   128   130   ar
    87   162   163    1
    88   167   168    2
    89   129   130   ar
    90   169   170    1
    91    22    19    1
    92    22    23    1
    93    18    19    1
    94    18    16   am
    95    15    16    1
    96    15    14    1
    97     9     8    1
    98   163   164    1
    99   173   172    1
   100    19    20    1
   101   172   171    1
   102    16    17    2
   103   170   171    1
   104    14    12   am
   105     8     7    1
   106    77    75   ar
   107    96    94    1
   108   100    99    2
   109    95    93    1
   110    76    75   ar
   111    20    21    2
   112    12    11    1
   113    12    13    2
   114    75    74    1
   115     7     6    1
   116    11    10    1
   117    99    98    1
   118     6     5    1
   119    68    67    1
   120    94    93    1
   121   103   101    1
   122    93    90    1
   123    83    82    1
   124    97    98    1
   125    97    91   am
   126    74    71    1
   127    84    82    1
   128    90    91    1
   129    90    89    1
   130    98   101    1
   131   102   101    1
   132    91    92    2
   133    67    69    1
   134    67    64    1
   135     5     2    1
   136    82    79    1
   137    70    71    1
   138    70    65   am
   139    73    72    2
   140    71    72    1
   141    88    87    2
   142    72    78   am
   143    89    87   am
   144    64    65    1
   145    64    63    1
   146    78    79    1
   147    58    57    2
   148    87    86    1
   149     2     3    1
   150     2     1    1
   151    65    66    2
   152    79    80    1
   153     3     4    2
   154    57    63   am
   155    57    56    1
   156    86    85    1
   157    80    81    2
   158    55    56    1
   159    56    59    1
   160    59    60    1
   161    60    61    1
   162    60    62    1
