@<TRIPOS>MOLECULE
tmp/3d42A00.pdb
 134 131 0 0 0
SMALL
GASTEIGER

@<TRIPOS>ATOM
      1  N         -7.6390    6.4950  -12.0360 N.3    44  PHE44      -0.1241
      2  CA        -6.9070    6.8980  -13.2440 C.3    44  PHE44       0.1605
      3  C         -6.0970    5.7610  -13.7830 C.2    44  PHE44       0.2264
      4  O         -5.5570    4.9820  -13.0090 O.2    44  PHE44      -0.2867
      5  CB        -5.9440    8.0710  -12.9620 C.3    44  PHE44       0.0534
      6  CG        -6.6290    9.4090  -12.8990 C.ar   44  PHE44      -0.0203
      7  CD1       -7.5050    9.8010  -13.9020 C.ar   44  PHE44      -0.0042
      8  CD2       -6.4120   10.2460  -11.8410 C.ar   44  PHE44      -0.0042
      9  CE1       -8.1500   11.0290  -13.8360 C.ar   44  PHE44      -0.0003
     10  CE2       -7.0400   11.4930  -11.7580 C.ar   44  PHE44      -0.0003
     11  CZ        -7.9070   11.8940  -12.7500 C.ar   44  PHE44      -0.0000
     12  N         -5.2020   12.5070  -27.3790 N.3    59  ASP59      -0.1225
     13  CA        -5.4920   12.9610  -26.0320 C.3    59  ASP59       0.1805
     14  C         -5.1650   14.4420  -25.8410 C.2    59  ASP59       0.2598
     15  O         -4.0320   14.9000  -26.1040 O.2    59  ASP59      -0.2718
     16  CB        -4.7030   12.1480  -24.9870 C.3    59  ASP59       0.1424
     17  CG        -5.0040   10.6550  -25.0620 C.2    59  ASP59       0.3668
     18  OD1       -6.1960   10.2950  -25.1520 O.co2  59  ASP59      -0.2456
     19  OD2       -4.0450    9.8360  -25.0460 O.co2  59  ASP59      -0.2456
     20  N         -6.1480   15.1940  -25.3560 N.am   60  ARG60      -0.1966
     21  CA        -5.9160   16.5640  -24.9000 C.3    60  ARG60       0.1729
     22  C         -4.9510   16.5850  -23.7050 C.2    60  ARG60       0.2616
     23  O         -4.0720   17.4090  -23.6290 O.2    60  ARG60      -0.2715
     24  CB        -7.2540   17.2580  -24.5650 C.3    60  ARG60       0.0348
     25  CG        -7.2010   18.7990  -24.4580 C.3    60  ARG60       0.0492
     26  CD        -8.5680   19.3900  -24.2370 C.3    60  ARG60       0.2205
     27  NE        -9.4190   19.3780  -25.4280 N.pl3  60  ARG60      -0.0865
     28  CZ        -9.3590   20.2960  -26.3850 C.cat  60  ARG60       0.5346
     29  NH1       -8.4800   21.2700  -26.2830 N.pl3  60  ARG60       0.1354
     30  NH2      -10.1660   20.2450  -27.4470 N.pl3  60  ARG60       0.1354
     31  N         -5.0810   15.6560  -22.7700 N.am   61  TYR61      -0.1960
     32  CA        -4.1750   15.7100  -21.6090 C.3    61  TYR61       0.1771
     33  C         -3.5270   14.3740  -21.3240 C.2    61  TYR61       0.2619
     34  O         -4.2020   13.4640  -20.8910 O.2    61  TYR61      -0.2715
     35  CB        -4.9310   16.1900  -20.3730 C.3    61  TYR61       0.0574
     36  CG        -5.6350   17.5220  -20.4970 C.ar   61  TYR61      -0.0198
     37  CD1       -4.9360   18.7210  -20.3470 C.ar   61  TYR61      -0.0009
     38  CD2       -6.9910   17.5880  -20.7350 C.ar   61  TYR61      -0.0009
     39  CE1       -5.5730   19.9450  -20.4430 C.ar   61  TYR61       0.0417
     40  CE2       -7.6450   18.7890  -20.8130 C.ar   61  TYR61       0.0417
     41  CZ        -6.9330   19.9660  -20.6810 C.ar   61  TYR61       0.1957
     42  OH        -7.5830   21.1650  -20.7660 O.3    61  TYR61      -0.2866
     43  N         -2.2230   14.2550  -21.4950 N.am   62  LYS62      -0.1963
     44  CA        -1.6110   12.9360  -21.3140 C.3    62  LYS62       0.1728
     45  C         -1.8890   12.1700  -19.9770 C.2    62  LYS62       0.2616
     46  O         -1.7860   10.9410  -19.9380 O.2    62  LYS62      -0.2715
     47  CB        -0.1210   12.9250  -21.6930 C.3    62  LYS62       0.0311
     48  CG         0.7660   14.0300  -21.1100 C.3    62  LYS62       0.0038
     49  CD         1.2150   15.0400  -22.1830 C.3    62  LYS62       0.0206
     50  CE         2.2630   16.0460  -21.6390 C.3    62  LYS62       0.1093
     51  NZ         1.6720   17.4300  -21.4760 N.3    62  LYS62      -0.1314
     52  N         -2.2600   12.9000  -18.9160 N.am   63  ASP63      -0.1957
     53  CA        -2.6450   12.3050  -17.6150 C.3    63  ASP63       0.1840
     54  C         -4.1210   11.8490  -17.5200 C.2    63  ASP63       0.2621
     55  O         -4.5190   11.2160  -16.5510 O.2    63  ASP63      -0.2715
     56  CB        -2.2770   13.2460  -16.4380 C.3    63  ASP63       0.1450
     57  CG        -2.8540   14.6510  -16.6070 C.2    63  ASP63       0.3671
     58  OD1       -3.2230   15.3580  -15.6110 O.co2  63  ASP63      -0.2456
     59  OD2       -2.9500   15.0610  -17.7820 O.co2  63  ASP63      -0.2456
     60  N         -4.9240   12.1680  -18.5300 N.am   64  ILE64      -0.1977
     61  CA        -6.3380   11.8190  -18.5230 C.3    64  ILE64       0.1596
     62  C         -6.6580   10.8500  -19.6690 C.2    64  ILE64       0.2287
     63  O         -6.7230   11.2290  -20.8540 O.2    64  ILE64      -0.2864
     64  CB        -7.1940   13.0980  -18.5000 C.3    64  ILE64       0.0276
     65  CG1       -6.9670   13.7610  -17.1400 C.3    64  ILE64       0.0022
     66  CG2       -8.6680   12.7710  -18.6900 C.3    64  ILE64       0.0022
     67  CD1       -6.8690   15.1870  -17.1840 C.3    64  ILE64       0.0001
     68  N        -13.7660   25.2850  -15.7460 N.3   190  ASP190     -0.1225
     69  CA       -13.2380   24.0150  -15.2750 C.3   190  ASP190      0.1805
     70  C        -12.6620   24.1330  -13.8900 C.2   190  ASP190      0.2597
     71  O        -12.2530   25.2240  -13.4870 O.2   190  ASP190     -0.2718
     72  CB       -12.3160   23.3180  -16.2540 C.3   190  ASP190      0.1424
     73  CG       -11.1850   24.1850  -16.7150 C.2   190  ASP190      0.3668
     74  OD1      -10.3450   24.4720  -15.8630 O.co2 190  ASP190     -0.2456
     75  OD2      -11.1030   24.5230  -17.9370 O.co2 190  ASP190     -0.2456
     76  N        -12.7280   23.0230  -13.1490 N.am  191  HIS191     -0.1975
     77  CA       -12.2190   22.9050  -11.7730 C.3   191  HIS191      0.1656
     78  C        -13.0790   23.6400  -10.7530 C.2   191  HIS191      0.2291
     79  O        -12.7340   23.7380   -9.5840 O.2   191  HIS191     -0.2864
     80  CB       -10.7440   23.3460  -11.7290 C.3   191  HIS191      0.0771
     81  CG        -9.8820   22.5480  -12.6610 C.ar  191  HIS191      0.0820
     82  ND1       -9.5300   22.9980  -13.9150 N.ar  191  HIS191     -0.2267
     83  CD2       -9.3720   21.2950  -12.5530 C.ar  191  HIS191      0.1154
     84  CE1       -8.8110   22.0710  -14.5260 C.ar  191  HIS191      0.1986
     85  NE2       -8.7030   21.0280  -13.7230 N.ar  191  HIS191     -0.2212
     86  N        -16.7040   17.8570  -21.7900 N.3   224  SER224     -0.1202
     87  CA       -16.1320   19.1020  -21.3170 C.3   224  SER224      0.2020
     88  C        -14.6610   18.9120  -21.6430 C.2   224  SER224      0.2619
     89  O        -14.2540   17.8060  -22.0120 O.2   224  SER224     -0.2717
     90  CB       -16.3250   19.2900  -19.8130 C.3   224  SER224      0.2103
     91  OG       -15.8880   18.1380  -19.1010 O.3   224  SER224     -0.2182
     92  N        -13.8510   19.9520  -21.5120 N.am  225  SER225     -0.1937
     93  CA       -12.4850   19.8610  -22.0280 C.3   225  SER225      0.2055
     94  C        -11.6920   18.5920  -21.6710 C.2   225  SER225      0.2642
     95  O        -11.0600   18.0190  -22.5600 O.2   225  SER225     -0.2714
     96  CB       -11.6920   21.1480  -21.7700 C.3   225  SER225      0.2130
     97  OG       -11.5530   21.3790  -20.4020 O.3   225  SER225     -0.2179
     98  N        -11.7300   18.1350  -20.4150 N.am  226  ALA226     -0.1977
     99  CA       -11.0210   16.9110  -20.0590 C.3   226  ALA226      0.1597
    100  C        -11.9630   15.7490  -20.0230 C.2   226  ALA226      0.2287
    101  O        -11.5160   14.6040  -20.0110 O.2   226  ALA226     -0.2864
    102  CB       -10.3070   17.0250  -18.7120 C.3   226  ALA226      0.0319
    103  N        -13.9960   14.8310  -17.4510 N.3   228  ILE228     -0.1231
    104  CA       -14.0860   14.1550  -16.1300 C.3   228  ILE228      0.1692
    105  C        -14.7500   14.9840  -15.0110 C.2   228  ILE228      0.2593
    106  O        -15.5720   14.4700  -14.2570 O.2   228  ILE228     -0.2718
    107  CB       -12.6970   13.6380  -15.6140 C.3   228  ILE228      0.0266
    108  CG1      -11.6190   14.7320  -15.6230 C.3   228  ILE228      0.0019
    109  CG2      -12.2010   12.4200  -16.4090 C.3   228  ILE228      0.0020
    110  CD1      -10.4560   14.3690  -14.6710 C.3   228  ILE228      0.0001
    111  N        -14.3770   16.2590  -14.8950 N.am  229  GLY229     -0.1942
    112  CA       -14.8620   17.0900  -13.7960 C.3   229  GLY229      0.2014
    113  C        -16.3060   17.4940  -13.9930 C.2   229  GLY229      0.2638
    114  O        -17.1930   16.9630  -13.3400 O.2   229  GLY229     -0.2714
    115  N        -16.5390   18.4250  -14.9150 N.am  230  ARG230     -0.1977
    116  CA       -17.8770   18.9200  -15.2340 C.3   230  ARG230      0.1597
    117  C        -18.7530   17.8510  -15.8530 C.2   230  ARG230      0.2287
    118  O        -19.9470   17.7800  -15.5650 O.2   230  ARG230     -0.2864
    119  CB       -17.7670   20.1120  -16.1650 C.3   230  ARG230      0.0334
    120  CG       -17.1580   21.3380  -15.4670 C.3   230  ARG230      0.0492
    121  CD       -16.7170   22.4110  -16.4480 C.3   230  ARG230      0.2205
    122  NE       -15.5450   21.9950  -17.2260 N.pl3 230  ARG230     -0.0865
    123  CZ       -14.9890   22.7330  -18.1950 C.cat 230  ARG230      0.5346
    124  NH1      -15.4800   23.9460  -18.5040 N.pl3 230  ARG230      0.1354
    125  NH2      -13.9210   22.2620  -18.8500 N.pl3 230  ARG230      0.1354
    126  N        -13.9880   16.2050  -10.0490 N.3   268  GLN268     -0.1245
    127  CA       -12.6080   16.3390   -9.7020 C.3   268  GLN268      0.1566
    128  C        -12.3080   17.0490   -8.4120 C.2   268  GLN268      0.2260
    129  O        -11.2700   16.8690   -7.8530 O.2   268  GLN268     -0.2867
    130  CB       -11.7800   16.7950  -10.9040 C.3   268  GLN268      0.0367
    131  CG       -11.6710   18.2040  -11.0400 C.3   268  GLN268      0.0905
    132  CD       -11.2030   18.5390  -12.3990 C.2   268  GLN268      0.2608
    133  OE1      -10.2840   17.9120  -12.9130 O.2   268  GLN268     -0.2717
    134  NE2      -11.8330   19.5310  -13.0130 N.am  268  GLN268     -0.0878
@<TRIPOS>BOND
     1    30    28    1
     2    12    13    1
     3    28    29    1
     4    28    27    2
     5    15    14    2
     6    13    14    1
     7    13    16    1
     8    14    20   am
     9    27    26    1
    10    20    21    1
    11    18    17   ar
    12    17    19   ar
    13    17    16    1
    14    21    24    1
    15    21    22    1
    16    24    25    1
    17    25    26    1
    18    22    23    2
    19    22    31   am
    20    31    32    1
    21    95    94    2
    22    49    50    1
    23    49    48    1
    24    93    96    1
    25    93    94    1
    26    93    92    1
    27    89    88    2
    28    86    87    1
    29    96    97    1
    30    47    44    1
    31    47    48    1
    32    94    98   am
    33    88    92   am
    34    88    87    1
    35    50    51    1
    36    32    33    1
    37    32    35    1
    38    43    33   am
    39    43    44    1
    40    33    34    2
    41    87    90    1
    42    44    45    1
    43    63    62    2
    44    40    38   ar
    45    40    41   ar
    46    42    41    1
    47    38    36   ar
    48    41    39   ar
    49    36    35    1
    50    36    37   ar
    51    39    37   ar
    52    98    99    1
    53    99   100    1
    54    99   102    1
    55   100   101    2
    56    45    46    2
    57    45    52   am
    58    90    91    1
    59    62    61    1
    60    52    53    1
    61   125   123    1
    62    66    64    1
    63    60    61    1
    64    60    54   am
    65    61    64    1
    66   124   123    1
    67    64    65    1
    68   123   122    2
    69    75    73   ar
    70    59    57   ar
    71    53    54    1
    72    53    56    1
    73    54    55    2
    74   103   104    1
    75   122   121    1
    76    67    65    1
    77    73    72    1
    78    73    74   ar
    79    57    56    1
    80    57    58   ar
    81   121   120    1
    82   109   107    1
    83    72    69    1
    84   119   120    1
    85   119   116    1
    86   104   107    1
    87   104   105    1
    88   117   118    2
    89   117   116    1
    90    68    69    1
    91   108   107    1
    92   108   110    1
    93    69    70    1
    94   116   115    1
    95   105   111   am
    96   105   106    2
    97   115   113   am
    98   111   112    1
    99    84    82   ar
   100    84    85   ar
   101   113   112    1
   102   113   114    2
   103    82    81   ar
   104     7     9   ar
   105     7     6   ar
   106    70    71    2
   107    70    76   am
   108     9    11   ar
   109     3     2    1
   110     3     4    2
   111    85    83   ar
   112     2     5    1
   113     2     1    1
   114    76    77    1
   115   134   132   am
   116     5     6    1
   117   133   132    2
   118     6     8   ar
   119    11    10   ar
   120    81    83   ar
   121    81    80    1
   122   132   131    1
   123     8    10   ar
   124    77    80    1
   125    77    78    1
   126   131   130    1
   127   130   127    1
   128    78    79    2
   129   126   127    1
   130   127   128    1
   131   128   129    2
