@<TRIPOS>MOLECULE
tmp/3d45A00.pdb
 168 161 0 0 0
SMALL
GASTEIGER

@<TRIPOS>ATOM
      1  N          0.2990   22.3470   11.0040 N.3    30  ASP30      -0.1225
      2  CA         0.3480   21.0130   11.5940 C.3    30  ASP30       0.1805
      3  C         -0.1420   19.9700   10.6170 C.2    30  ASP30       0.2598
      4  O         -1.0230   20.2500    9.7930 O.2    30  ASP30      -0.2718
      5  CB        -0.4640   20.9110   12.8780 C.3    30  ASP30       0.1424
      6  CG        -0.2150   19.6130   13.5780 C.2    30  ASP30       0.3668
      7  OD1        0.9370   19.1250   13.4490 O.co2  30  ASP30      -0.2456
      8  OD2       -1.1550   19.0660   14.2210 O.co2  30  ASP30      -0.2456
      9  N          0.4300   18.7770   10.7110 N.am   31  GLY31      -0.1957
     10  CA         0.0110   17.6910    9.8540 C.3    31  GLY31       0.1869
     11  C         -0.5860   16.5480   10.6420 C.2    31  GLY31       0.2309
     12  O         -0.1290   16.2590   11.7400 O.2    31  GLY31      -0.2863
     13  N         -1.1320   12.4530    9.8960 N.3    33  PHE33      -0.1241
     14  CA        -0.5110   11.4390    9.0470 C.3    33  PHE33       0.1605
     15  C         -1.2500   10.0960    9.0750 C.2    33  PHE33       0.2264
     16  O         -1.9800    9.7710   10.0140 O.2    33  PHE33      -0.2867
     17  CB         0.9490   11.1690    9.4560 C.3    33  PHE33       0.0534
     18  CG         1.7300   12.3850    9.8860 C.ar   33  PHE33      -0.0203
     19  CD1        2.4900   12.3400   11.0430 C.ar   33  PHE33      -0.0042
     20  CD2        1.7330   13.5520    9.1380 C.ar   33  PHE33      -0.0042
     21  CE1        3.2150   13.4280   11.4560 C.ar   33  PHE33      -0.0003
     22  CE2        2.4540   14.6540    9.5570 C.ar   33  PHE33      -0.0003
     23  CZ         3.2000   14.5900   10.7100 C.ar   33  PHE33      -0.0000
     24  N          2.9220    6.5160   11.9540 N.3    36  ILE36      -0.1245
     25  CA         4.2360    7.0050   12.4220 C.3    36  ILE36       0.1561
     26  C          5.4000    6.0980   12.0260 C.2    36  ILE36       0.2260
     27  O          6.3280    6.5480   11.3310 O.2    36  ILE36      -0.2867
     28  CB         4.2350    7.2990   13.9380 C.3    36  ILE36       0.0252
     29  CG1        3.0730    8.2300   14.2950 C.3    36  ILE36       0.0019
     30  CG2        5.5470    7.9090   14.3900 C.3    36  ILE36       0.0019
     31  CD1        3.4290    9.7010   14.4260 C.3    36  ILE36       0.0001
     32  N         19.5720    9.6420   12.6500 N.3    47  ARG47      -0.1245
     33  CA        18.1830    9.8960   12.9340 C.3    47  ARG47       0.1563
     34  C         17.4760   10.1200   11.6180 C.2    47  ARG47       0.2260
     35  O         16.5370    9.4030   11.2790 O.2    47  ARG47      -0.2867
     36  CB        18.0100   11.0940   13.8490 C.3    47  ARG47       0.0307
     37  CG        16.5440   11.4310   14.1230 C.3    47  ARG47       0.0489
     38  CD        15.7850   10.2750   14.7010 C.3    47  ARG47       0.2205
     39  NE        16.4810    9.6270   15.8200 N.pl3  47  ARG47      -0.0865
     40  CZ        16.4640   10.0590   17.0810 C.cat  47  ARG47       0.5346
     41  NH1       15.8090   11.1670   17.4160 N.pl3  47  ARG47       0.1354
     42  NH2       17.1240    9.3910   18.0120 N.pl3  47  ARG47       0.1354
     43  N         14.1480    7.9010   10.1600 N.3    51  LEU51      -0.1245
     44  CA        12.8740    8.5180    9.8560 C.3    51  LEU51       0.1561
     45  C         12.6330    8.5320    8.3520 C.2    51  LEU51       0.2260
     46  O         11.4940    8.4150    7.8930 O.2    51  LEU51      -0.2867
     47  CB        12.7970    9.9290   10.4570 C.3    51  LEU51       0.0270
     48  CG        13.0940    9.9680   11.9730 C.3    51  LEU51       0.0019
     49  CD1       12.8790   11.3330   12.6010 C.3    51  LEU51       0.0001
     50  CD2       12.2640    8.9320   12.7110 C.3    51  LEU51       0.0001
     51  N          4.7920   22.5360   16.0850 N.3   173  HIS173     -0.1226
     52  CA         5.1020   21.9770   17.3940 C.3   173  HIS173      0.1752
     53  C          5.6520   20.5670   17.2880 C.2   173  HIS173      0.2596
     54  O          4.9090   19.6440   16.9810 O.2   173  HIS173     -0.2718
     55  CB         3.8820   21.9690   18.3190 C.3   173  HIS173      0.0759
     56  CG         4.1490   21.3340   19.6590 C.ar  173  HIS173      0.0818
     57  ND1        4.5950   22.0520   20.7500 N.ar  173  HIS173     -0.2268
     58  CD2        4.0490   20.0440   20.0720 C.ar  173  HIS173      0.1154
     59  CE1        4.7450   21.2360   21.7770 C.ar  173  HIS173      0.1986
     60  NE2        4.4200   20.0130   21.3930 N.ar  173  HIS173     -0.2212
     61  N          6.9360   20.3960   17.6100 N.am  174  ASN174     -0.1974
     62  CA         7.6390   19.1250   17.4390 C.3   174  ASN174      0.1688
     63  C          7.4940   18.6410   16.0030 C.2   174  ASN174      0.2292
     64  O          7.0670   17.5120   15.7550 O.2   174  ASN174     -0.2864
     65  CB         7.1050   18.0760   18.4000 C.3   174  ASN174      0.1181
     66  CG         7.9940   16.8650   18.4840 C.2   174  ASN174      0.2629
     67  OD1        8.9240   16.7180   17.7030 O.2   174  ASN174     -0.2716
     68  ND2        7.7260   15.9930   19.4500 N.am  174  ASN174     -0.0877
     69  N          9.5200   18.0970   13.1610 N.3   176  LEU176     -0.1231
     70  CA        10.4600   17.4020   12.2600 C.3   176  LEU176      0.1693
     71  C          9.7360   16.4840   11.2690 C.2   176  LEU176      0.2592
     72  O         10.0440   16.5200   10.0820 O.2   176  LEU176     -0.2718
     73  CB        11.5510   16.6400   13.0260 C.3   176  LEU176      0.0284
     74  CG        12.8420   16.1420   12.3110 C.3   176  LEU176      0.0019
     75  CD1       13.0520   14.6270   12.4630 C.3   176  LEU176      0.0001
     76  CD2       13.0640   16.5910   10.8130 C.3   176  LEU176      0.0001
     77  N          8.7600   15.6950   11.7410 N.am  177  LEU177     -0.1966
     78  CA         7.9280   14.9010   10.8070 C.3   177  LEU177      0.1728
     79  C          7.0540   15.7430    9.8590 C.2   177  LEU177      0.2616
     80  O          7.0100   15.4780    8.6580 O.2   177  LEU177     -0.2715
     81  CB         7.0690   13.8570   11.5230 C.3   177  LEU177      0.0311
     82  CG         7.8060   12.8170   12.3690 C.3   177  LEU177      0.0022
     83  CD1        6.8270   11.8990   13.0630 C.3   177  LEU177      0.0001
     84  CD2        8.7610   11.9960   11.5200 C.3   177  LEU177      0.0001
     85  N          6.3650   16.7520   10.3910 N.am  178  ASP178     -0.1971
     86  CA         5.5220   17.5920    9.5390 C.3   178  ASP178      0.1709
     87  C          6.3530   18.1280    8.4120 C.2   178  ASP178      0.2293
     88  O          5.9140   18.0670    7.2580 O.2   178  ASP178     -0.2864
     89  CB         4.9070   18.7540   10.2970 C.3   178  ASP178      0.1436
     90  CG         4.0660   18.3010   11.4370 C.2   178  ASP178      0.3671
     91  OD1        3.0210   17.6840   11.1620 O.co2 178  ASP178     -0.2456
     92  OD2        4.4480   18.5630   12.6040 O.co2 178  ASP178     -0.2456
     93  N          7.7460   23.5540   20.6020 N.3   212  LYS212     -0.1245
     94  CA         8.2220   22.5900   21.5700 C.3   212  LYS212      0.1561
     95  C          9.6890   22.8430   21.9470 C.2   212  LYS212      0.2260
     96  O         10.0870   22.5850   23.0780 O.2   212  LYS212     -0.2867
     97  CB         8.0120   21.1810   21.0350 C.3   212  LYS212      0.0271
     98  CG         8.5630   20.0680   21.9060 C.3   212  LYS212      0.0035
     99  CD         8.1630   18.7080   21.3640 C.3   212  LYS212      0.0206
    100  CE         8.3690   17.6120   22.3820 C.3   212  LYS212      0.1093
    101  NZ         7.2460   17.4990   23.3510 N.3   212  LYS212     -0.1314
    102  N          6.1890   20.0300   31.3410 N.3   226  ASN226     -0.1225
    103  CA         5.7240   19.1500   30.2880 C.3   226  ASN226      0.1785
    104  C          5.4510   19.9260   29.0120 C.2   226  ASN226      0.2598
    105  O          4.7370   20.9360   29.0360 O.2   226  ASN226     -0.2718
    106  CB         4.4890   18.3770   30.7060 C.3   226  ASN226      0.1169
    107  CG         3.9810   17.5110   29.5970 C.2   226  ASN226      0.2627
    108  OD1        4.4940   16.4220   29.3650 O.2   226  ASN226     -0.2716
    109  ND2        3.0030   18.0100   28.8620 N.am  226  ASN226     -0.0877
    110  N          6.0070   19.4540   27.8980 N.am  227  THR227     -0.1939
    111  CA         5.9070   20.2040   26.6410 C.3   227  THR227      0.2028
    112  C          5.0650   19.5370   25.5570 C.2   227  THR227      0.2643
    113  O          5.2460   19.8140   24.3860 O.2   227  THR227     -0.2714
    114  CB         7.2920   20.6190   26.0750 C.3   227  THR227      0.1808
    115  OG1        8.0740   19.4680   25.7780 O.3   227  THR227     -0.2208
    116  CG2        8.0400   21.4310   27.0670 C.3   227  THR227      0.0379
    117  N          4.1560   18.6460   25.9650 N.am  228  SER228     -0.1935
    118  CA         3.0460   18.1930   25.1140 C.3   228  SER228      0.2055
    119  C          2.3080   19.4310   24.6920 C.2   228  SER228      0.2642
    120  O          2.1090   20.3440   25.4940 O.2   228  SER228     -0.2714
    121  CB         2.0240   17.3540   25.8920 C.3   228  SER228      0.2130
    122  OG         2.5390   16.1170   26.3280 O.3   228  SER228     -0.2179
    123  N          1.8610   19.4640   23.4500 N.am  229  LEU229     -0.1977
    124  CA         1.0890   20.6010   23.0090 C.3   229  LEU229      0.1596
    125  C         -0.0930   20.8680   23.9540 C.2   229  LEU229      0.2287
    126  O         -0.2580   21.9930   24.4320 O.2   229  LEU229     -0.2864
    127  CB         0.6520   20.4480   21.5510 C.3   229  LEU229      0.0297
    128  CG        -0.1830   21.6030   20.9880 C.3   229  LEU229      0.0022
    129  CD1        0.4500   22.9460   21.3230 C.3   229  LEU229      0.0001
    130  CD2       -0.4050   21.4600   19.4880 C.3   229  LEU229      0.0001
    131  N         13.0560   20.5380   16.5240 N.3   296  PHE296     -0.1227
    132  CA        13.1140   19.7570   17.7510 C.3   296  PHE296      0.1736
    133  C         13.6700   18.3600   17.5400 C.2   296  PHE296      0.2595
    134  O         13.5310   17.8030   16.4650 O.2   296  PHE296     -0.2718
    135  CB        11.7290   19.6200   18.3780 C.3   296  PHE296      0.0547
    136  CG        11.7760   19.0470   19.7410 C.ar  296  PHE296     -0.0202
    137  CD1       12.2260   19.8260   20.8110 C.ar  296  PHE296     -0.0042
    138  CD2       11.4330   17.7210   19.9580 C.ar  296  PHE296     -0.0042
    139  CE1       12.3080   19.3020   22.0760 C.ar  296  PHE296     -0.0003
    140  CE2       11.5160   17.1900   21.2230 C.ar  296  PHE296     -0.0003
    141  CZ        11.9560   17.9890   22.2880 C.ar  296  PHE296     -0.0000
    142  N         14.2580   17.7730   18.5790 N.am  297  LEU297     -0.1966
    143  CA        14.7280   16.3950   18.4660 C.3   297  LEU297      0.1728
    144  C         14.1220   15.4790   19.5570 C.2   297  LEU297      0.2616
    145  O         13.9830   15.8890   20.7070 O.2   297  LEU297     -0.2715
    146  CB        16.2640   16.3870   18.4490 C.3   297  LEU297      0.0311
    147  CG        16.8270   15.6550   17.2400 C.3   297  LEU297      0.0022
    148  CD1       15.7300   15.3500   16.2550 C.3   297  LEU297      0.0001
    149  CD2       17.8800   16.4540   16.5890 C.3   297  LEU297      0.0001
    150  N         13.7190   14.2630   19.1910 N.am  298  MET298     -0.1963
    151  CA        13.2000   13.3190   20.1880 C.3   298  MET298      0.1736
    152  C         14.2250   12.2470   20.6510 C.2   298  MET298      0.2616
    153  O         15.1480   11.8580   19.8990 O.2   298  MET298     -0.2715
    154  CB        11.9030   12.6670   19.6980 C.3   298  MET298      0.0427
    155  CG        10.6680   13.2140   20.3590 C.3   298  MET298      0.0599
    156  SD         9.1520   12.5800   19.6490 S.3   298  MET298     -0.1393
    157  CE         8.0000   12.9440   20.9700 C.3   298  MET298      0.0692
    158  N         14.0840   11.7800   21.8920 N.am  299  ARG299     -0.1977
    159  CA        14.7630   10.5580   22.2940 C.3   299  ARG299      0.1597
    160  C         16.2140   10.5380   21.8670 C.2   299  ARG299      0.2287
    161  O         16.6400    9.6000   21.1940 O.2   299  ARG299     -0.2864
    162  CB        14.0900    9.3610   21.6200 C.3   299  ARG299      0.0334
    163  CG        13.0280    8.6780   22.4300 C.3   299  ARG299      0.0492
    164  CD        12.3200    7.6740   21.5780 C.3   299  ARG299      0.2205
    165  NE        11.5270    8.3810   20.5870 N.pl3 299  ARG299     -0.0865
    166  CZ        10.3500    8.9340   20.8520 C.cat 299  ARG299      0.5346
    167  NH1        9.8180    8.8510   22.0740 N.pl3 299  ARG299      0.1354
    168  NH2        9.7070    9.5690   19.8880 N.pl3 299  ARG299      0.1354
@<TRIPOS>BOND
     1    88    87    2
     2    46    45    2
     3    45    44    1
     4    87    86    1
     5    80    79    2
     6    14    15    1
     7    14    17    1
     8    14    13    1
     9    15    16    2
    10    20    22   ar
    11    20    18   ar
    12    17    18    1
    13    86    89    1
    14    86    85    1
    15    22    23   ar
    16     4     3    2
    17    10    11    1
    18    10     9    1
    19    44    43    1
    20    44    47    1
    21    79    85   am
    22    79    78    1
    23    18    19   ar
    24    72    71    2
    25    89    90    1
    26    47    48    1
    27     3     9   am
    28     3     2    1
    29    11    12    2
    30    23    21   ar
    31    78    81    1
    32    78    77    1
    33    76    74    1
    34     1     2    1
    35    19    21   ar
    36    91    90   ar
    37    71    77   am
    38    71    70    1
    39    35    34    2
    40    27    26    2
    41    90    92   ar
    42    84    82    1
    43    81    82    1
    44     2     5    1
    45    34    33    1
    46    24    25    1
    47    48    49    1
    48    48    50    1
    49    26    25    1
    50    70    73    1
    51    70    69    1
    52    74    75    1
    53    74    73    1
    54    82    83    1
    55    25    28    1
    56    32    33    1
    57     5     6    1
    58    33    36    1
    59     7     6   ar
    60     6     8   ar
    61    36    37    1
    62    28    29    1
    63    28    30    1
    64    37    38    1
    65    29    31    1
    66    38    39    1
    67    64    63    2
    68    39    40    2
    69    63    62    1
    70    51    52    1
    71   148   147    1
    72   134   133    2
    73   131   132    1
    74   149   147    1
    75    54    53    2
    76    40    41    1
    77    40    42    1
    78   147   146    1
    79    53    52    1
    80    53    61   am
    81    52    55    1
    82    62    61    1
    83    62    65    1
    84   133   132    1
    85   133   142   am
    86    67    66    2
    87   132   135    1
    88    55    56    1
    89   135   136    1
    90    65    66    1
    91   146   143    1
    92   143   142    1
    93   143   144    1
    94    66    68   am
    95   150   144   am
    96   150   151    1
    97   130   128    1
    98   144   145    2
    99   156   155    1
   100   156   157    1
   101    56    58   ar
   102    56    57   ar
   103   154   151    1
   104   154   155    1
   105   136   138   ar
   106   136   137   ar
   107   168   166    1
   108   153   152    2
   109   138   140   ar
   110    58    60   ar
   111   151   152    1
   112   165   166    2
   113   165   164    1
   114    93    94    1
   115   152   158   am
   116    57    59   ar
   117   137   139   ar
   118   166   167    1
   119   128   129    1
   120   128   127    1
   121    97    94    1
   122    97    98    1
   123   161   160    2
   124   140   141   ar
   125    99    98    1
   126    99   100    1
   127    60    59   ar
   128   127   124    1
   129    94    95    1
   130   164   163    1
   131   162   159    1
   132   162   163    1
   133   160   159    1
   134   158   159    1
   135    95    96    2
   136   139   141   ar
   137   100   101    1
   138   124   123    1
   139   124   125    1
   140   123   119   am
   141   125   126    2
   142   113   112    2
   143   119   118    1
   144   119   120    2
   145   118   121    1
   146   118   117    1
   147   112   117   am
   148   112   111    1
   149   115   114    1
   150   121   122    1
   151   114   111    1
   152   114   116    1
   153   111   110    1
   154   110   104   am
   155   109   107   am
   156   104   105    2
   157   104   103    1
   158   108   107    2
   159   107   106    1
   160   103   106    1
   161   103   102    1
