@<TRIPOS>MOLECULE
tmp/3d47B00.pdb
 141 134 0 0 0
SMALL
GASTEIGER

@<TRIPOS>ATOM
      1  N        -12.2700  -12.4300  -16.5920 N.3    33  HIS33      -0.1241
      2  CA       -12.7990  -12.2390  -15.2460 C.3    33  HIS33       0.1621
      3  C        -13.5080  -13.4280  -14.6020 C.2    33  HIS33       0.2264
      4  O        -13.9760  -13.3210  -13.4680 O.2    33  HIS33      -0.2867
      5  CB       -13.7410  -11.0330  -15.2340 C.3    33  HIS33       0.0745
      6  CG       -13.1220   -9.7840  -15.7760 C.ar   33  HIS33       0.0817
      7  ND1      -13.5310   -9.2030  -16.9570 N.ar   33  HIS33      -0.2268
      8  CD2      -12.1050   -9.0180  -15.3130 C.ar   33  HIS33       0.1154
      9  CE1      -12.7930   -8.1330  -17.1980 C.ar   33  HIS33       0.1986
     10  NE2      -11.9210   -7.9990  -16.2160 N.ar   33  HIS33      -0.2212
     11  N         -6.1740  -11.4760   -7.8310 N.3    40  TRP40      -0.1227
     12  CA        -5.9080  -10.0370   -7.8650 C.3    40  TRP40       0.1737
     13  C         -6.9440   -9.3240   -8.7290 C.2    40  TRP40       0.2595
     14  O         -7.3710   -8.2070   -8.4240 O.2    40  TRP40      -0.2718
     15  CB        -4.5180   -9.7480   -8.4490 C.3    40  TRP40       0.0564
     16  CG        -4.4520   -9.8850   -9.9530 C.ar   40  TRP40       0.0003
     17  CD1       -4.1380  -11.0080  -10.6610 C.ar   40  TRP40       0.0946
     18  CD2       -4.7470   -8.8670  -10.9280 C.ar   40  TRP40       0.0152
     19  NE1       -4.2160  -10.7570  -12.0120 N.ar   40  TRP40      -0.2442
     20  CE2       -4.5890   -9.4520  -12.2040 C.ar   40  TRP40       0.0810
     21  CE3       -5.1300   -7.5190  -10.8450 C.ar   40  TRP40       0.0012
     22  CZ2       -4.8000   -8.7380  -13.3900 C.ar   40  TRP40       0.0191
     23  CZ3       -5.3400   -6.8080  -12.0250 C.ar   40  TRP40       0.0001
     24  CH2       -5.1730   -7.4210  -13.2800 C.ar   40  TRP40       0.0015
     25  N         -7.3440   -9.9810   -9.8120 N.am   41  ILE41      -0.1980
     26  CA        -8.2960   -9.3980  -10.7480 C.3    41  ILE41       0.1595
     27  C         -9.6650   -9.1060  -10.1300 C.2    41  ILE41       0.2287
     28  O        -10.5200   -8.4870  -10.7670 O.2    41  ILE41      -0.2864
     29  CB        -8.4320  -10.3060  -12.0020 C.3    41  ILE41       0.0276
     30  CG1       -8.6840   -9.4440  -13.2440 C.3    41  ILE41       0.0022
     31  CG2       -9.5520  -11.3150  -11.8140 C.3    41  ILE41       0.0022
     32  CD1       -8.5720  -10.2120  -14.5590 C.3    41  ILE41       0.0001
     33  N        -10.9960   -3.8150   -7.0280 N.3    45  ILE45      -0.1245
     34  CA       -10.7000   -2.9990   -8.2010 C.3    45  ILE45       0.1561
     35  C        -11.8030   -1.9590   -8.3960 C.2    45  ILE45       0.2260
     36  O        -12.9860   -2.2790   -8.3300 O.2    45  ILE45      -0.2867
     37  CB       -10.5440   -3.8840   -9.4620 C.3    45  ILE45       0.0252
     38  CG1       -9.3390   -4.8200   -9.2740 C.3    45  ILE45       0.0019
     39  CG2      -10.3580   -3.0090  -10.7060 C.3    45  ILE45       0.0019
     40  CD1       -8.9010   -5.5670  -10.5220 C.3    45  ILE45       0.0001
     41  N        -15.7040   -7.4700   -8.0560 N.3    59  ARG59      -0.1245
     42  CA       -16.3970   -7.1970   -9.3070 C.3    59  ARG59       0.1563
     43  C        -17.2830   -8.4070   -9.5910 C.2    59  ARG59       0.2260
     44  O        -18.3690   -8.2870  -10.1640 O.2    59  ARG59      -0.2867
     45  CB       -15.3900   -6.9640  -10.4390 C.3    59  ARG59       0.0307
     46  CG       -14.5610   -5.7000  -10.2370 C.3    59  ARG59       0.0489
     47  CD       -13.8340   -5.2610  -11.5000 C.3    59  ARG59       0.2205
     48  NE       -12.7300   -6.1390  -11.8700 N.pl3  59  ARG59      -0.0865
     49  CZ       -11.8760   -5.8840  -12.8570 C.cat  59  ARG59       0.5346
     50  NH1      -12.0030   -4.7770  -13.5830 N.pl3  59  ARG59       0.1354
     51  NH2      -10.8810   -6.7190  -13.1070 N.pl3  59  ARG59       0.1354
     52  N         -0.0020   -6.7370  -17.0100 N.3   173  THR173     -0.1218
     53  CA        -1.0890   -6.1490  -16.2400 C.3   173  THR173      0.1862
     54  C         -1.4300   -7.0280  -15.0470 C.2   173  THR173      0.2287
     55  O         -1.7910   -8.1990  -15.2020 O.2   173  THR173     -0.2866
     56  CB        -2.3450   -5.9640  -17.1030 C.3   173  THR173      0.1770
     57  OG1       -2.0290   -5.1150  -18.2160 O.3   173  THR173     -0.2211
     58  CG2       -3.4640   -5.3370  -16.2830 C.3   173  THR173      0.0375
     59  N          1.2040   -2.4560  -15.6290 N.3   189  LYS189     -0.1245
     60  CA         0.0020   -1.6510  -15.4880 C.3   189  LYS189      0.1561
     61  C         -0.7550   -2.1780  -14.2760 C.2   189  LYS189      0.2260
     62  O         -1.0770   -3.3650  -14.2000 O.2   189  LYS189     -0.2867
     63  CB        -0.8690   -1.7560  -16.7460 C.3   189  LYS189      0.0271
     64  CG        -2.1700   -0.9670  -16.6650 C.3   189  LYS189      0.0035
     65  CD        -2.8700   -0.8870  -18.0260 C.3   189  LYS189      0.0206
     66  CE        -3.4730   -2.2260  -18.4370 C.3   189  LYS189      0.1093
     67  NZ        -3.9940   -2.2070  -19.8360 N.3   189  LYS189     -0.1314
     68  N         -4.0780   -1.8260  -11.4350 N.3   191  PRO191     -0.2116
     69  CA        -5.4550   -1.3400  -11.4290 C.3   191  PRO191      0.1372
     70  C         -5.6070   -0.3300  -10.2970 C.2   191  PRO191      0.2244
     71  O         -4.8690   -0.3860   -9.3080 O.2   191  PRO191     -0.2868
     72  CB        -6.2520   -2.6050  -11.1610 C.3   191  PRO191      0.0268
     73  CG        -5.3740   -3.3190  -10.1810 C.3   191  PRO191      0.0207
     74  CD        -3.9920   -3.1590  -10.8060 C.3   191  PRO191      0.0892
     75  N         -4.6960    1.3470  -14.7240 N.3   226  ASP226     -0.1239
     76  CA        -5.9210    0.9820  -15.4190 C.3   226  ASP226      0.1674
     77  C         -7.0380    1.3970  -14.4700 C.2   226  ASP226      0.2266
     78  O         -7.0450    0.9940  -13.3070 O.2   226  ASP226     -0.2867
     79  CB        -5.9640   -0.5190  -15.6840 C.3   226  ASP226      0.1410
     80  CG        -7.1000   -0.9060  -16.5990 C.2   226  ASP226      0.3668
     81  OD1       -8.2680   -0.6920  -16.2180 O.co2 226  ASP226     -0.2456
     82  OD2       -6.8180   -1.4170  -17.6990 O.co2 226  ASP226     -0.2456
     83  N        -10.4870    1.1290  -15.2850 N.3   228  TRP228     -0.1241
     84  CA       -11.7130    0.4190  -15.6490 C.3   228  TRP228      0.1605
     85  C        -13.0400    1.2100  -15.5930 C.2   228  TRP228      0.2264
     86  O        -13.9580    0.8470  -14.8540 O.2   228  TRP228     -0.2867
     87  CB       -11.8290   -0.8590  -14.7850 C.3   228  TRP228      0.0550
     88  CG       -12.4320   -2.0560  -15.5050 C.ar  228  TRP228      0.0003
     89  CD1      -11.8220   -2.8520  -16.4290 C.ar  228  TRP228      0.0946
     90  CD2      -13.7640   -2.5700  -15.3530 C.ar  228  TRP228      0.0152
     91  NE1      -12.6870   -3.8320  -16.8640 N.ar  228  TRP228     -0.2442
     92  CE2      -13.8870   -3.6810  -16.2180 C.ar  228  TRP228      0.0810
     93  CE3      -14.8650   -2.1980  -14.5710 C.ar  228  TRP228      0.0012
     94  CZ2      -15.0670   -4.4250  -16.3220 C.ar  228  TRP228      0.0191
     95  CZ3      -16.0420   -2.9380  -14.6740 C.ar  228  TRP228      0.0001
     96  CH2      -16.1310   -4.0400  -15.5440 C.ar  228  TRP228      0.0015
     97  N         -5.2740    4.7120  -18.1210 N.3   252  GLU252     -0.1245
     98  CA        -6.2490    4.0310  -18.9790 C.3   252  GLU252      0.1567
     99  C         -7.7160    3.9200  -18.5800 C.2   252  GLU252      0.2260
    100  O         -8.0630    3.6810  -17.4200 O.2   252  GLU252     -0.2867
    101  CB        -5.7060    2.6300  -19.2840 C.3   252  GLU252      0.0388
    102  CG        -6.7010    1.6170  -19.8550 C.3   252  GLU252      0.1160
    103  CD        -6.0090    0.3290  -20.2600 C.2   252  GLU252      0.3649
    104  OE1       -6.6970   -0.6900  -20.4800 O.co2 252  GLU252     -0.2457
    105  OE2       -4.7650    0.3470  -20.3710 O.co2 252  GLU252     -0.2457
    106  N        -10.7720   -0.5860  -25.0170 N.3   280  GLU280     -0.1245
    107  CA       -11.1010   -1.9940  -24.8350 C.3   280  GLU280      0.1567
    108  C        -12.5950   -2.2950  -24.8440 C.2   280  GLU280      0.2260
    109  O        -13.0060   -3.3770  -25.2630 O.2   280  GLU280     -0.2867
    110  CB       -10.4490   -2.5410  -23.5570 C.3   280  GLU280      0.0388
    111  CG       -11.0930   -2.1150  -22.2490 C.3   280  GLU280      0.1160
    112  CD       -10.2470   -2.5160  -21.0530 C.2   280  GLU280      0.3649
    113  OE1       -9.0840   -2.0640  -20.9810 O.co2 280  GLU280     -0.2457
    114  OE2      -10.7380   -3.2790  -20.1910 O.co2 280  GLU280     -0.2457
    115  N         -5.9960   -4.8780  -26.2370 N.3   329  HIS329     -0.1241
    116  CA        -6.2350   -5.3800  -24.8940 C.3   329  HIS329      0.1621
    117  C         -6.1700   -6.9100  -24.9260 C.2   329  HIS329      0.2264
    118  O         -6.9260   -7.5490  -25.6670 O.2   329  HIS329     -0.2867
    119  CB        -7.6210   -4.9280  -24.4290 C.3   329  HIS329      0.0745
    120  CG        -8.1450   -5.6820  -23.2470 C.ar  329  HIS329      0.0817
    121  ND1       -8.6150   -6.9750  -23.3340 N.ar  329  HIS329     -0.2268
    122  CD2       -8.2840   -5.3190  -21.9500 C.ar  329  HIS329      0.1154
    123  CE1       -9.0240   -7.3750  -22.1430 C.ar  329  HIS329      0.1986
    124  NE2       -8.8340   -6.3880  -21.2850 N.ar  329  HIS329     -0.2212
    125  N          0.0570   -6.1970  -24.6820 N.3   349  GLU349     -0.1245
    126  CA        -0.3390   -6.4530  -23.3080 C.3   349  GLU349      0.1567
    127  C         -0.4510   -7.9330  -22.9660 C.2   349  GLU349      0.2260
    128  O         -0.8780   -8.7450  -23.7890 O.2   349  GLU349     -0.2867
    129  CB        -1.6870   -5.7870  -23.0070 C.3   349  GLU349      0.0388
    130  CG        -2.2600   -6.1880  -21.6420 C.3   349  GLU349      0.1160
    131  CD        -3.5750   -5.5070  -21.3050 C.2   349  GLU349      0.3649
    132  OE1       -4.4180   -5.3340  -22.2150 O.co2 349  GLU349     -0.2457
    133  OE2       -3.7710   -5.1620  -20.1210 O.co2 349  GLU349     -0.2457
    134  N         -2.1560   -9.8680  -19.8460 N.3   351  LEU351     -0.1245
    135  CA        -2.9730   -9.7330  -18.6470 C.3   351  LEU351      0.1561
    136  C         -2.7940  -10.9490  -17.7470 C.2   351  LEU351      0.2260
    137  O         -3.1660  -12.0610  -18.1150 O.2   351  LEU351     -0.2867
    138  CB        -4.4460   -9.5750  -19.0430 C.3   351  LEU351      0.0270
    139  CG        -5.5110   -9.4040  -17.9570 C.3   351  LEU351      0.0019
    140  CD1       -5.2490   -8.1310  -17.1560 C.3   351  LEU351      0.0001
    141  CD2       -6.8860   -9.3390  -18.6070 C.3   351  LEU351      0.0001
@<TRIPOS>BOND
     1   115   116    1
     2   118   117    2
     3   109   108    2
     4   106   107    1
     5   117   116    1
     6   116   119    1
     7   108   107    1
     8   107   110    1
     9   125   126    1
    10   119   120    1
    11   128   127    2
    12   110   111    1
    13   121   120   ar
    14   121   123   ar
    15   126   129    1
    16   126   127    1
    17   120   122   ar
    18   129   130    1
    19   111   112    1
    20   132   131   ar
    21   123   124   ar
    22   122   124   ar
    23   130   131    1
    24   131   133   ar
    25   112   113   ar
    26   112   114   ar
    27   104   103   ar
    28   105   103   ar
    29   103   102    1
    30   102   101    1
    31   134   135    1
    32    67    66    1
    33   101    98    1
    34   138   135    1
    35   138   139    1
    36    98    99    1
    37    98    97    1
    38   135   136    1
    39   141   139    1
    40    99   100    2
    41    66    65    1
    42    57    56    1
    43   137   136    2
    44    65    64    1
    45   139   140    1
    46    82    80   ar
    47     9     7   ar
    48     9    10   ar
    49    56    58    1
    50    56    53    1
    51    52    53    1
    52     7     6   ar
    53    91    89   ar
    54    91    92   ar
    55    63    64    1
    56    63    60    1
    57    80    81   ar
    58    80    79    1
    59     1     2    1
    60    89    88   ar
    61    94    92   ar
    62    94    96   ar
    63    53    54    1
    64    92    90   ar
    65    10     8   ar
    66     6     8   ar
    67     6     5    1
    68    79    76    1
    69    84    85    1
    70    84    83    1
    71    84    87    1
    72    59    60    1
    73    85    86    2
    74    96    95   ar
    75    88    90   ar
    76    88    87    1
    77    60    61    1
    78    76    75    1
    79    76    77    1
    80    90    93   ar
    81     2     5    1
    82     2     3    1
    83    55    54    2
    84    95    93   ar
    85     3     4    2
    86    32    30    1
    87    77    78    2
    88    61    62    2
    89    50    49    1
    90    22    24   ar
    91    22    20   ar
    92    24    23   ar
    93    30    29    1
    94    51    49    1
    95    49    48    2
    96    20    19   ar
    97    20    18   ar
    98    23    21   ar
    99    19    17   ar
   100    29    31    1
   101    29    26    1
   102    48    47    1
   103    47    46    1
   104    68    69    1
   105    68    74    1
   106    69    72    1
   107    69    70    1
   108    72    73    1
   109    18    21   ar
   110    18    16   ar
   111    74    73    1
   112    28    27    2
   113    26    27    1
   114    26    25    1
   115    39    37    1
   116    17    16   ar
   117    40    38    1
   118    45    46    1
   119    45    42    1
   120    70    71    2
   121    44    43    2
   122    16    15    1
   123    25    13   am
   124    43    42    1
   125    37    38    1
   126    37    34    1
   127    42    41    1
   128    13    14    2
   129    13    12    1
   130    15    12    1
   131    35    36    2
   132    35    34    1
   133    34    33    1
   134    12    11    1
