@<TRIPOS>MOLECULE
tmp/3d4fA02.pdb
 104 95 0 0 0
SMALL
GASTEIGER

@<TRIPOS>ATOM
      1  N         33.5780   60.4230    8.4640 N.3    45  SER45      -0.1217
      2  CA        33.1390   59.2590    7.6920 C.3    45  SER45       0.1889
      3  C         33.5300   57.9120    8.2650 C.2    45  SER45       0.2288
      4  O         32.9760   56.8840    7.8590 O.2    45  SER45      -0.2866
      5  CB        33.6870   59.3360    6.2800 C.3    45  SER45       0.2089
      6  OG        33.8060   60.6890    5.8980 O.3    45  SER45      -0.2183
      7  N         26.8240   64.9050   -1.6470 N.3    80  TYR80      -0.1241
      8  CA        27.7530   63.8540   -2.1090 C.3    80  TYR80       0.1605
      9  C         27.1680   62.4550   -2.0310 C.2    80  TYR80       0.2264
     10  O         27.2850   61.7510   -1.0270 O.2    80  TYR80      -0.2867
     11  CB        29.1020   63.9080   -1.3740 C.3    80  TYR80       0.0534
     12  CG        30.1740   63.1600   -2.1250 C.ar   80  TYR80      -0.0201
     13  CD1       30.6280   63.6210   -3.3530 C.ar   80  TYR80      -0.0009
     14  CD2       30.6740   61.9440   -1.6520 C.ar   80  TYR80      -0.0009
     15  CE1       31.5480   62.8920   -4.1090 C.ar   80  TYR80       0.0417
     16  CE2       31.5970   61.2090   -2.4060 C.ar   80  TYR80       0.0417
     17  CZ        32.0210   61.6860   -3.6260 C.ar   80  TYR80       0.1957
     18  OH        32.9050   60.9440   -4.3770 O.3    80  TYR80      -0.2866
     19  N         32.1570   56.4360   -0.0330 N.3   105  SER105     -0.1217
     20  CA        31.8510   57.5490    0.8860 C.3   105  SER105      0.1889
     21  C         30.5420   58.2460    0.5190 C.2   105  SER105      0.2288
     22  O         30.4040   59.4710    0.6260 O.2   105  SER105     -0.2866
     23  CB        33.0000   58.5590    0.9000 C.3   105  SER105      0.2089
     24  OG        34.2040   57.9080    1.3060 O.3   105  SER105     -0.2183
     25  N         37.7960   49.9160   -0.5460 N.3   189  ASP189     -0.1239
     26  CA        37.7290   51.3780   -0.6540 C.3   189  ASP189      0.1674
     27  C         38.1830   51.7970   -2.0750 C.2   189  ASP189      0.2266
     28  O         39.2570   51.4050   -2.5200 O.2   189  ASP189     -0.2867
     29  CB        38.6240   52.0190    0.4150 C.3   189  ASP189      0.1410
     30  CG        38.6170   53.5360    0.3530 C.2   189  ASP189      0.3668
     31  OD1       37.7050   54.1110   -0.2920 O.co2 189  ASP189     -0.2456
     32  OD2       39.5150   54.1500    0.9630 O.co2 189  ASP189     -0.2456
     33  N         38.4040   55.0340   -3.0980 N.3   191  VAL191     -0.1231
     34  CA        38.9580   56.3720   -3.0550 C.3   191  VAL191      0.1692
     35  C         40.3750   56.4020   -2.4910 C.2   191  VAL191      0.2591
     36  O         41.3540   56.3880   -3.2400 O.2   191  VAL191     -0.2718
     37  CB        38.0600   57.2780   -2.2130 C.3   191  VAL191      0.0266
     38  CG1       38.3400   58.7350   -2.5430 C.3   191  VAL191      0.0020
     39  CG2       36.5920   56.9350   -2.4550 C.3   191  VAL191      0.0020
     40  N         40.4920   56.4160   -1.1710 N.am  192  ALA192     -0.1980
     41  CA        41.8110   56.4640   -0.5600 C.3   192  ALA192      0.1597
     42  C         42.6190   55.1770   -0.7090 C.2   192  ALA192      0.2287
     43  O         43.8370   55.2260   -0.9070 O.2   192  ALA192     -0.2864
     44  CB        41.6770   56.8240    0.9210 C.3   192  ALA192      0.0319
     45  N         45.1480   54.7610   -3.7510 N.3   195  LEU195     -0.1245
     46  CA        46.2430   55.7130   -3.6760 C.3   195  LEU195      0.1561
     47  C         47.2220   55.2590   -2.6050 C.2   195  LEU195      0.2260
     48  O         48.4310   55.2650   -2.8250 O.2   195  LEU195     -0.2867
     49  CB        45.7090   57.1080   -3.3390 C.3   195  LEU195      0.0270
     50  CG        46.8260   58.1250   -3.0760 C.3   195  LEU195      0.0019
     51  CD1       47.5450   58.4400   -4.3730 C.3   195  LEU195      0.0001
     52  CD2       46.2540   59.3730   -2.4780 C.3   195  LEU195      0.0001
     53  N         38.9740   53.0860    6.0260 N.3   209  LYS209     -0.1231
     54  CA        37.8810   54.0410    5.8360 C.3   209  LYS209      0.1693
     55  C         38.4800   55.3710    6.3230 C.2   209  LYS209      0.2593
     56  O         38.9770   55.4640    7.4560 O.2   209  LYS209     -0.2718
     57  CB        36.6220   53.7340    6.6240 C.3   209  LYS209      0.0285
     58  CG        35.5270   54.7730    6.3360 C.3   209  LYS209      0.0035
     59  CD        34.9770   54.6080    4.9160 C.3   209  LYS209      0.0206
     60  CE        34.1660   55.8170    4.4700 C.3   209  LYS209      0.1093
     61  NZ        35.0580   56.9190    3.9430 N.3   209  LYS209     -0.1314
     62  N         38.4650   56.3900    5.4630 N.am  210  THR210     -0.1939
     63  CA        39.0040   57.7040    5.8150 C.3   210  THR210      0.2028
     64  C         37.8380   58.6540    6.0670 C.2   210  THR210      0.2643
     65  O         36.6860   58.3180    5.8190 O.2   210  THR210     -0.2714
     66  CB        39.8660   58.3130    4.6600 C.3   210  THR210      0.1808
     67  OG1       39.0740   58.3680    3.4670 O.3   210  THR210     -0.2208
     68  CG2       41.1010   57.4650    4.3920 C.3   210  THR210      0.0379
     69  N         38.1410   59.8290    6.5990 N.am  211  GLY211     -0.1939
     70  CA        37.0980   60.8140    6.8220 C.3   211  GLY211      0.2014
     71  C         37.7180   62.1940    6.9590 C.2   211  GLY211      0.2638
     72  O         38.9210   62.3180    7.2140 O.2   211  GLY211     -0.2714
     73  N         36.9070   63.2290    6.7650 N.am  212  ALA212     -0.1977
     74  CA        37.3740   64.6010    6.8960 C.3   212  ALA212      0.1597
     75  C         36.2360   65.4220    7.4980 C.2   212  ALA212      0.2287
     76  O         35.0780   64.9770    7.5520 O.2   212  ALA212     -0.2864
     77  CB        37.7870   65.1760    5.5200 C.3   212  ALA212      0.0319
     78  N         40.3830   65.2990   10.2380 N.3   218  ARG218     -0.1245
     79  CA        40.8250   64.3370    9.2300 C.3   218  ARG218      0.1563
     80  C         41.0960   63.0380    9.9890 C.2   218  ARG218      0.2260
     81  O         41.5090   63.0640   11.1500 O.2   218  ARG218     -0.2867
     82  CB        42.1170   64.8710    8.5850 C.3   218  ARG218      0.0307
     83  CG        42.6900   64.0720    7.4220 C.3   218  ARG218      0.0489
     84  CD        41.6740   64.0160    6.3480 C.3   218  ARG218      0.2205
     85  NE        42.1600   63.5810    5.0350 N.pl3 218  ARG218     -0.0865
     86  CZ        41.4220   62.8370    4.2140 C.cat 218  ARG218      0.5346
     87  NH1       41.8780   62.5080    3.0100 N.pl3 218  ARG218      0.1354
     88  NH2       40.2500   62.3680    4.6260 N.pl3 218  ARG218      0.1354
     89  N         44.3570   70.5110    3.3390 N.3   245  MET245     -0.1245
     90  CA        44.0630   69.0830    3.2710 C.3   245  MET245      0.1570
     91  C         45.3250   68.3130    2.8730 C.2   245  MET245      0.2261
     92  O         45.6070   67.2410    3.4160 O.2   245  MET245     -0.2867
     93  CB        42.9590   68.8190    2.2390 C.3   245  MET245      0.0387
     94  CG        42.6630   67.3540    2.0350 C.3   245  MET245      0.0595
     95  SD        42.0420   66.5770    3.5240 S.3   245  MET245     -0.1393
     96  CE        40.3410   67.0570    3.4530 C.3   245  MET245      0.0692
     97  N         46.9670   65.2910    4.9900 N.3   249  ASN249     -0.1240
     98  CA        47.1800   63.9610    4.4000 C.3   249  ASN249      0.1653
     99  C         48.6560   63.5580    4.5590 C.2   249  ASN249      0.2266
    100  O         48.9880   62.4080    4.8830 O.2   249  ASN249     -0.2867
    101  CB        46.8550   63.9680    2.9040 C.3   249  ASN249      0.1155
    102  CG        45.3810   64.0870    2.6190 C.2   249  ASN249      0.2627
    103  OD1       44.5380   63.8180    3.4800 O.2   249  ASN249     -0.2716
    104  ND2       45.0560   64.4740    1.4010 N.am  249  ASN249     -0.0877
@<TRIPOS>BOND
     1    18    17    1
     2    51    50    1
     3    15    17   ar
     4    15    13   ar
     5    45    46    1
     6    46    49    1
     7    46    47    1
     8    17    16   ar
     9    13    12   ar
    10    49    50    1
    11    36    35    2
    12    33    34    1
    13    50    52    1
    14    34    35    1
    15    34    37    1
    16    48    47    2
    17    38    37    1
    18    28    27    2
    19    35    40   am
    20    39    37    1
    21    16    14   ar
    22    12    14   ar
    23    12    11    1
    24     8     9    1
    25     8     7    1
    26     8    11    1
    27    27    26    1
    28     9    10    2
    29    40    41    1
    30    43    42    2
    31    42    41    1
    32    26    25    1
    33    26    29    1
    34    41    44    1
    35    31    30   ar
    36    19    20    1
    37    30    29    1
    38    30    32   ar
    39    21    22    2
    40    21    20    1
    41    20    23    1
    42    23    24    1
    43   104   102   am
    44    94    93    1
    45    94    95    1
    46    93    90    1
    47   102   101    1
    48   102   103    2
    49    91    90    1
    50    91    92    2
    51   101    98    1
    52    87    86    1
    53    90    89    1
    54    96    95    1
    55    67    66    1
    56    61    60    1
    57    86    88    1
    58    86    85    2
    59    68    66    1
    60    98    99    1
    61    98    97    1
    62    60    59    1
    63    99   100    2
    64    66    63    1
    65    59    58    1
    66    85    84    1
    67    62    63    1
    68    62    55   am
    69    77    74    1
    70    63    64    1
    71    65    64    2
    72    54    53    1
    73    54    55    1
    74    54    57    1
    75     6     5    1
    76    64    69   am
    77     5     2    1
    78    55    56    2
    79    58    57    1
    80    84    83    1
    81    69    70    1
    82    73    74    1
    83    73    71   am
    84    70    71    1
    85    74    75    1
    86    71    72    2
    87    83    82    1
    88    75    76    2
    89     2     3    1
    90     2     1    1
    91     4     3    2
    92    82    79    1
    93    79    80    1
    94    79    78    1
    95    80    81    2
