@<TRIPOS>MOLECULE
tmp/3d4kA00.pdb
 79 76 0 0 0
SMALL
GASTEIGER

@<TRIPOS>ATOM
      1  N          7.3970  -12.4230   47.3640 N.3    12  TYR12      -0.1241
      2  CA         6.4210  -13.2250   48.0910 C.3    12  TYR12       0.1605
      3  C          5.1310  -12.4850   48.3800 C.2    12  TYR12       0.2264
      4  O          5.1340  -11.4760   49.0540 O.2    12  TYR12      -0.2867
      5  CB         7.0550  -13.7100   49.3990 C.3    12  TYR12       0.0534
      6  CG         6.1670  -14.6130   50.2190 C.ar   12  TYR12      -0.0201
      7  CD1        5.2870  -14.0870   51.1670 C.ar   12  TYR12      -0.0009
      8  CD2        6.1920  -15.9970   50.0340 C.ar   12  TYR12      -0.0009
      9  CE1        4.4520  -14.9220   51.9150 C.ar   12  TYR12       0.0417
     10  CE2        5.3610  -16.8380   50.7730 C.ar   12  TYR12       0.0417
     11  CZ         4.4980  -16.2950   51.7090 C.ar   12  TYR12       0.1957
     12  OH         3.6850  -17.1240   52.4470 O.3    12  TYR12      -0.2866
     13  N          2.0690  -11.2270   50.2540 N.3    14  ASN14      -0.1240
     14  CA         1.5410  -11.1520   51.6200 C.3    14  ASN14       0.1653
     15  C          0.2050  -10.4320   51.4180 C.2    14  ASN14       0.2266
     16  O          0.0770   -9.2400   51.7110 O.2    14  ASN14      -0.2867
     17  CB         2.4370  -10.3070   52.5450 C.3    14  ASN14       0.1155
     18  CG         3.7980  -10.9400   52.8090 C.2    14  ASN14       0.2627
     19  OD1        4.7440  -10.7500   52.0500 O.2    14  ASN14      -0.2716
     20  ND2        3.9020  -11.6900   53.9000 N.am   14  ASN14      -0.0877
     21  N         12.3130  -14.4700   55.3080 N.3    98  GLY98      -0.1210
     22  CA        11.5890  -14.7410   56.5380 C.3    98  GLY98       0.1956
     23  C         11.5260  -16.2410   56.7390 C.2    98  GLY98       0.2612
     24  O         12.5550  -16.8850   56.9440 O.2    98  GLY98      -0.2717
     25  N         10.3200  -16.7980   56.6970 N.am   99  LEU99      -0.1965
     26  CA        10.1480  -18.2390   56.8660 C.3    99  LEU99       0.1728
     27  C         10.7160  -18.8520   55.5900 C.2    99  LEU99       0.2616
     28  O         11.4150  -19.8650   55.6170 O.2    99  LEU99      -0.2715
     29  CB         8.6630  -18.5920   57.0000 C.3    99  LEU99       0.0311
     30  CG         8.3040  -20.0820   56.9370 C.3    99  LEU99       0.0022
     31  CD1        9.0050  -20.8290   58.0670 C.3    99  LEU99       0.0001
     32  CD2        6.7920  -20.2480   57.0340 C.3    99  LEU99       0.0001
     33  N         10.4080  -18.2130   54.4660 N.am  100  TYR100     -0.1974
     34  CA        10.8770  -18.6640   53.1640 C.3   100  TYR100      0.1639
     35  C         12.0690  -17.7900   52.8060 C.2   100  TYR100      0.2290
     36  O         12.1810  -16.6640   53.2950 O.2   100  TYR100     -0.2864
     37  CB         9.7590  -18.5270   52.1320 C.3   100  TYR100      0.0560
     38  CG         8.5470  -19.3590   52.4820 C.ar  100  TYR100     -0.0198
     39  CD1        8.6480  -20.7440   52.6240 C.ar  100  TYR100     -0.0009
     40  CD2        7.3090  -18.7640   52.7080 C.ar  100  TYR100     -0.0009
     41  CE1        7.5470  -21.5150   52.9860 C.ar  100  TYR100      0.0417
     42  CE2        6.1990  -19.5250   53.0710 C.ar  100  TYR100      0.0417
     43  CZ         6.3280  -20.9000   53.2090 C.ar  100  TYR100      0.1957
     44  OH         5.2400  -21.6560   53.5860 O.3   100  TYR100     -0.2866
     45  N         11.1580  -15.8220   49.0240 N.3   207  ALA207     -0.1231
     46  CA        10.7860  -14.6050   49.7400 C.3   207  ALA207      0.1694
     47  C         12.0870  -13.9680   50.2380 C.2   207  ALA207      0.2592
     48  O         13.0980  -14.6610   50.3460 O.2   207  ALA207     -0.2718
     49  CB         9.8700  -14.9530   50.9180 C.3   207  ALA207      0.0304
     50  N         12.0870  -12.6710   50.5480 N.am  208  ASP208     -0.1974
     51  CA        10.9240  -11.8010   50.4650 C.3   208  ASP208      0.1709
     52  C         11.0320  -10.6990   49.4050 C.2   208  ASP208      0.2293
     53  O         10.0340  -10.0590   49.0660 O.2   208  ASP208     -0.2864
     54  CB        10.6690  -11.1670   51.8310 C.3   208  ASP208      0.1436
     55  CG         9.7670  -12.0150   52.7060 C.2   208  ASP208      0.3671
     56  OD1        8.5340  -11.8710   52.5900 O.co2 208  ASP208     -0.2456
     57  OD2       10.2910  -12.8270   53.4950 O.co2 208  ASP208     -0.2456
     58  N         12.3960   -7.9250   59.2540 N.3   226  THR226     -0.1203
     59  CA        12.7820   -9.0240   58.3780 C.3   226  THR226      0.1994
     60  C         11.5230   -9.3930   57.5860 C.2   226  THR226      0.2618
     61  O         10.4940   -8.7430   57.7130 O.2   226  THR226     -0.2717
     62  CB        13.2270  -10.2680   59.1880 C.3   226  THR226      0.1784
     63  OG1       12.2300  -10.5780   60.1770 O.3   226  THR226     -0.2211
     64  CG2       14.5640  -10.0120   59.8750 C.3   226  THR226      0.0376
     65  N         11.6110  -10.4330   56.7670 N.am  227  GLY227     -0.1942
     66  CA        10.4580  -10.8520   55.9900 C.3   227  GLY227      0.2014
     67  C          9.7440   -9.8320   55.1200 C.2   227  GLY227      0.2638
     68  O         10.3710   -9.0950   54.3610 O.2   227  GLY227     -0.2714
     69  N          8.4200   -9.7910   55.2420 N.am  228  ARG228     -0.1977
     70  CA         7.5810   -8.8760   54.4650 C.3   228  ARG228      0.1597
     71  C          7.8730   -7.3810   54.5650 C.2   228  ARG228      0.2287
     72  O          7.4110   -6.6120   53.7150 O.2   228  ARG228     -0.2864
     73  CB         6.1050   -9.1110   54.8060 C.3   228  ARG228      0.0334
     74  CG         5.7000   -8.5760   56.1710 C.3   228  ARG228      0.0492
     75  CD         4.2800   -8.9840   56.5440 C.3   228  ARG228      0.2205
     76  NE         3.8470   -8.3180   57.7710 N.pl3 228  ARG228     -0.0865
     77  CZ         2.7160   -8.5910   58.4110 C.cat 228  ARG228      0.5346
     78  NH1        1.8970   -9.5260   57.9420 N.pl3 228  ARG228      0.1354
     79  NH2        2.3970   -7.9200   59.5120 N.pl3 228  ARG228      0.1354
@<TRIPOS>BOND
     1     1     2    1
     2     2     3    1
     3     2     5    1
     4     3     4    2
     5    45    46    1
     6    53    52    2
     7     5     6    1
     8    52    51    1
     9    46    47    1
    10    46    49    1
    11     8     6   ar
    12     8    10   ar
    13     6     7   ar
    14    47    48    2
    15    47    50   am
    16    13    14    1
    17    51    50    1
    18    51    54    1
    19    10    11   ar
    20     7     9   ar
    21    15    14    1
    22    15    16    2
    23    14    17    1
    24    11     9   ar
    25    11    12    1
    26    54    55    1
    27    19    18    2
    28    37    38    1
    29    37    34    1
    30    38    39   ar
    31    38    40   ar
    32    17    18    1
    33    56    55   ar
    34    39    41   ar
    35    55    57   ar
    36    40    42   ar
    37    35    34    1
    38    35    36    2
    39    18    20   am
    40    41    43   ar
    41    42    43   ar
    42    34    33    1
    43    43    44    1
    44    72    71    2
    45    68    67    2
    46    70    71    1
    47    70    73    1
    48    70    69    1
    49    33    27   am
    50    73    74    1
    51    67    69   am
    52    67    66    1
    53    21    22    1
    54    27    28    2
    55    27    26    1
    56    66    65    1
    57    74    75    1
    58    22    23    1
    59    75    76    1
    60    25    23   am
    61    25    26    1
    62    23    24    2
    63    65    60   am
    64    26    29    1
    65    30    29    1
    66    30    32    1
    67    30    31    1
    68    60    61    2
    69    60    59    1
    70    76    77    2
    71    78    77    1
    72    59    62    1
    73    59    58    1
    74    77    79    1
    75    62    64    1
    76    62    63    1
