@<TRIPOS>MOLECULE
tmp/3d4lA08.pdb
 175 170 0 0 0
SMALL
GASTEIGER

@<TRIPOS>ATOM
      1  N         37.5490   61.2700   36.4090 N.3    87  ARG87      -0.1245
      2  CA        38.4060   60.8260   37.5180 C.3    87  ARG87       0.1563
      3  C         39.6220   61.7270   37.7380 C.2    87  ARG87       0.2260
      4  O         40.0090   61.9910   38.8760 O.2    87  ARG87      -0.2867
      5  CB        38.9050   59.3910   37.3140 C.3    87  ARG87       0.0307
      6  CG        39.5970   58.7840   38.5600 C.3    87  ARG87       0.0489
      7  CD        40.2360   57.4310   38.2340 C.3    87  ARG87       0.2205
      8  NE        39.2660   56.4170   37.8010 N.pl3  87  ARG87      -0.0865
      9  CZ        38.6580   55.5360   38.6000 C.cat  87  ARG87       0.5346
     10  NH1       38.8970   55.5290   39.9070 N.pl3  87  ARG87       0.1354
     11  NH2       37.8250   54.6290   38.0770 N.pl3  87  ARG87       0.1354
     12  N         40.6290   57.8620   31.3750 N.3   167  GLU167     -0.1231
     13  CA        40.3530   56.7710   32.3170 C.3   167  GLU167      0.1699
     14  C         41.2210   55.5170   32.1970 C.2   167  GLU167      0.2592
     15  O         41.7510   54.9990   33.1970 O.2   167  GLU167     -0.2718
     16  CB        38.8880   56.3300   32.1800 C.3   167  GLU167      0.0402
     17  CG        38.5440   55.0250   32.9500 C.3   167  GLU167      0.1161
     18  CD        38.3780   55.2280   34.4500 C.2   167  GLU167      0.3649
     19  OE1       38.4610   56.3940   34.9220 O.co2 167  GLU167     -0.2457
     20  OE2       38.1680   54.2190   35.1760 O.co2 167  GLU167     -0.2457
     21  N         41.3520   55.0370   30.9710 N.am  168  GLU168     -0.1966
     22  CA        42.0280   53.7820   30.6960 C.3   168  GLU168      0.1733
     23  C         43.4700   53.7180   30.2080 C.2   168  GLU168      0.2616
     24  O         44.0840   52.6670   30.3310 O.2   168  GLU168     -0.2715
     25  CB        41.1750   53.0050   29.6910 C.3   168  GLU168      0.0429
     26  CG        39.7080   53.0630   29.9910 C.3   168  GLU168      0.1163
     27  CD        39.3200   52.2180   31.1890 C.2   168  GLU168      0.3649
     28  OE1       40.2110   51.7620   31.9350 O.co2 168  GLU168     -0.2457
     29  OE2       38.1140   52.0110   31.3690 O.co2 168  GLU168     -0.2457
     30  N         44.0010   54.7980   29.6340 N.am  169  VAL169     -0.1977
     31  CA        45.3670   54.7550   29.0970 C.3   169  VAL169      0.1596
     32  C         46.3810   55.5680   29.8960 C.2   169  VAL169      0.2287
     33  O         47.3230   55.0140   30.4720 O.2   169  VAL169     -0.2864
     34  CB        45.3750   55.2210   27.6280 C.3   169  VAL169      0.0276
     35  CG1       46.7920   55.1030   27.0320 C.3   169  VAL169      0.0022
     36  CG2       44.3660   54.3850   26.8220 C.3   169  VAL169      0.0022
     37  N         45.5760   57.6220   32.6160 N.3   171  SER171     -0.1217
     38  CA        45.1920   57.8970   34.0050 C.3   171  SER171      0.1889
     39  C         45.5370   59.3560   34.3120 C.2   171  SER171      0.2288
     40  O         46.0990   59.6800   35.3510 O.2   171  SER171     -0.2866
     41  CB        45.9330   56.9660   34.9740 C.3   171  SER171      0.2089
     42  OG        45.3980   55.6570   34.9040 O.3   171  SER171     -0.2183
     43  N         48.2490   47.1020   32.7460 N.3   319  PHE319     -0.1227
     44  CA        47.0640   47.7750   32.2030 C.3   319  PHE319      0.1736
     45  C         47.4440   48.3930   30.8570 C.2   319  PHE319      0.2595
     46  O         46.5800   48.7490   30.0590 O.2   319  PHE319     -0.2718
     47  CB        46.5470   48.8390   33.1810 C.3   319  PHE319      0.0547
     48  CG        45.9670   48.2520   34.4260 C.ar  319  PHE319     -0.0202
     49  CD1       44.6710   47.7630   34.4370 C.ar  319  PHE319     -0.0042
     50  CD2       46.7480   48.1060   35.5660 C.ar  319  PHE319     -0.0042
     51  CE1       44.1550   47.1300   35.5650 C.ar  319  PHE319     -0.0003
     52  CE2       46.2450   47.4740   36.6980 C.ar  319  PHE319     -0.0003
     53  CZ        44.9460   46.9850   36.6950 C.ar  319  PHE319     -0.0000
     54  N         48.7480   48.4990   30.6140 N.am  320  ARG320     -0.1980
     55  CA        49.3040   49.0130   29.3510 C.3   320  ARG320      0.1597
     56  C         50.8070   48.7500   29.3690 C.2   320  ARG320      0.2287
     57  O         51.3750   48.5070   30.4340 O.2   320  ARG320     -0.2864
     58  CB        49.0720   50.5250   29.1930 C.3   320  ARG320      0.0334
     59  CG        49.6130   51.3690   30.3480 C.3   320  ARG320      0.0492
     60  CD        49.7510   52.8620   29.9900 C.3   320  ARG320      0.2205
     61  NE        50.0710   53.6590   31.1740 N.pl3 320  ARG320     -0.0865
     62  CZ        50.4610   54.9320   31.1560 C.cat 320  ARG320      0.5346
     63  NH1       50.5960   55.5930   30.0050 N.pl3 320  ARG320      0.1354
     64  NH2       50.7180   55.5490   32.3060 N.pl3 320  ARG320      0.1354
     65  N         36.5950   42.6200   44.7250 N.3   509  TYR509     -0.1241
     66  CA        36.8150   43.5280   43.5930 C.3   509  TYR509      0.1605
     67  C         37.0630   42.5210   42.4790 C.2   509  TYR509      0.2264
     68  O         36.2110   42.3100   41.6150 O.2   509  TYR509     -0.2867
     69  CB        38.0320   44.4320   43.7610 C.3   509  TYR509      0.0534
     70  CG        38.1160   45.4170   42.6030 C.ar  509  TYR509     -0.0201
     71  CD1       39.1200   45.3110   41.6410 C.ar  509  TYR509     -0.0009
     72  CD2       37.1360   46.4050   42.4260 C.ar  509  TYR509     -0.0009
     73  CE1       39.1460   46.1680   40.5240 C.ar  509  TYR509      0.0417
     74  CE2       37.1580   47.2670   41.2970 C.ar  509  TYR509      0.0417
     75  CZ        38.1610   47.1340   40.3620 C.ar  509  TYR509      0.1957
     76  OH        38.1850   47.9520   39.2400 O.3   509  TYR509     -0.2866
     77  N         31.8210   48.5810   41.5750 N.3   592  SER592     -0.1202
     78  CA        32.4200   48.6370   40.2480 C.3   592  SER592      0.2020
     79  C         32.6680   47.2120   39.7000 C.2   592  SER592      0.2618
     80  O         31.7240   46.4290   39.6130 O.2   592  SER592     -0.2717
     81  CB        33.7210   49.4500   40.3520 C.3   592  SER592      0.2103
     82  OG        34.2360   49.7720   39.0750 O.3   592  SER592     -0.2182
     83  N         33.8950   46.8680   39.3070 N.am  593  TYR593     -0.1975
     84  CA        34.1330   45.5000   38.8300 C.3   593  TYR593      0.1639
     85  C         33.6800   44.5430   39.9540 C.2   593  TYR593      0.2290
     86  O         33.1750   43.4520   39.6910 O.2   593  TYR593     -0.2864
     87  CB        35.6190   45.2690   38.5130 C.3   593  TYR593      0.0560
     88  CG        35.8740   43.9860   37.7060 C.ar  593  TYR593     -0.0198
     89  CD1       35.8060   42.7220   38.3100 C.ar  593  TYR593     -0.0009
     90  CD2       36.1240   44.0430   36.3340 C.ar  593  TYR593     -0.0009
     91  CE1       35.9820   41.5340   37.5610 C.ar  593  TYR593      0.0417
     92  CE2       36.2940   42.8820   35.5680 C.ar  593  TYR593      0.0417
     93  CZ        36.2210   41.6290   36.1930 C.ar  593  TYR593      0.1957
     94  OH        36.3970   40.4980   35.4420 O.3   593  TYR593     -0.2866
     95  N         29.0620   46.5410   36.6390 N.3   618  VAL618     -0.1245
     96  CA        29.0510   46.3410   35.2130 C.3   618  VAL618      0.1561
     97  C         28.0590   45.1770   35.1390 C.2   618  VAL618      0.2260
     98  O         28.0230   44.3620   36.0660 O.2   618  VAL618     -0.2867
     99  CB        30.4200   45.8840   34.7350 C.3   618  VAL618      0.0252
    100  CG1       30.3160   45.1430   33.3840 C.3   618  VAL618      0.0019
    101  CG2       31.3110   47.1070   34.5880 C.3   618  VAL618      0.0019
    102  N         29.3510   43.2530   29.2990 N.3   621  TRP621     -0.1241
    103  CA        30.5570   43.9150   28.8020 C.3   621  TRP621      0.1605
    104  C         30.3820   44.8420   27.6000 C.2   621  TRP621      0.2264
    105  O         31.1440   45.7970   27.4460 O.2   621  TRP621     -0.2867
    106  CB        31.6730   42.8820   28.6020 C.3   621  TRP621      0.0550
    107  CG        32.1720   42.4300   29.9710 C.ar  621  TRP621      0.0003
    108  CD1       31.9690   41.2120   30.5680 C.ar  621  TRP621      0.0946
    109  CD2       32.8280   43.2540   30.9590 C.ar  621  TRP621      0.0152
    110  NE1       32.4420   41.2260   31.8590 N.ar  621  TRP621     -0.2442
    111  CE2       32.9730   42.4650   32.1300 C.ar  621  TRP621      0.0810
    112  CE3       33.2920   44.5850   30.9680 C.ar  621  TRP621      0.0012
    113  CZ2       33.5750   42.9610   33.3090 C.ar  621  TRP621      0.0191
    114  CZ3       33.8900   45.0870   32.1320 C.ar  621  TRP621      0.0001
    115  CH2       34.0260   44.2680   33.2970 C.ar  621  TRP621      0.0015
    116  N         30.3950   48.4870   28.6410 N.3   624  TYR624     -0.1241
    117  CA        31.5700   49.1750   29.1850 C.3   624  TYR624      0.1605
    118  C         32.4590   49.6980   28.0590 C.2   624  TYR624      0.2264
    119  O         32.2480   49.3600   26.8830 O.2   624  TYR624     -0.2867
    120  CB        32.3650   48.2770   30.1550 C.3   624  TYR624      0.0534
    121  CG        33.2300   49.1070   31.0810 C.ar  624  TYR624     -0.0201
    122  CD1       32.6710   50.1540   31.8300 C.ar  624  TYR624     -0.0009
    123  CD2       34.6220   48.9160   31.1430 C.ar  624  TYR624     -0.0009
    124  CE1       33.4750   51.0000   32.6090 C.ar  624  TYR624      0.0417
    125  CE2       35.4240   49.7560   31.9200 C.ar  624  TYR624      0.0417
    126  CZ        34.8500   50.7900   32.6480 C.ar  624  TYR624      0.1957
    127  OH        35.6460   51.6030   33.4330 O.3   624  TYR624     -0.2866
    128  N         39.3390   49.3180   27.9360 N.3   628  TYR628     -0.1241
    129  CA        39.4360   48.3610   29.0370 C.3   628  TYR628      0.1605
    130  C         38.8090   47.0100   28.6660 C.2   628  TYR628      0.2264
    131  O         39.4480   45.9630   28.7880 O.2   628  TYR628     -0.2867
    132  CB        38.7530   48.9230   30.2820 C.3   628  TYR628      0.0534
    133  CG        38.7470   48.0110   31.4990 C.ar  628  TYR628     -0.0201
    134  CD1       37.7680   47.0110   31.6540 C.ar  628  TYR628     -0.0009
    135  CD2       39.6850   48.1780   32.5190 C.ar  628  TYR628     -0.0009
    136  CE1       37.7250   46.2140   32.8050 C.ar  628  TYR628      0.0417
    137  CE2       39.6550   47.3780   33.6760 C.ar  628  TYR628      0.0417
    138  CZ        38.6720   46.4020   33.8160 C.ar  628  TYR628      0.1957
    139  OH        38.6380   45.6350   34.9760 O.3   628  TYR628     -0.2866
    140  N         40.5900   44.8430   25.9770 N.3   631  ARG631     -0.1245
    141  CA        41.9030   44.4100   26.4380 C.3   631  ARG631      0.1563
    142  C         41.8110   42.9690   26.9600 C.2   631  ARG631      0.2260
    143  O         42.7190   42.1550   26.7680 O.2   631  ARG631     -0.2867
    144  CB        42.3910   45.3190   27.5760 C.3   631  ARG631      0.0307
    145  CG        43.8010   45.0170   28.0810 C.3   631  ARG631      0.0489
    146  CD        44.1230   45.9040   29.2960 C.3   631  ARG631      0.2205
    147  NE        44.1210   47.3340   28.9450 N.pl3 631  ARG631     -0.0865
    148  CZ        43.6670   48.2960   29.7500 C.cat 631  ARG631      0.5346
    149  NH1       43.1680   47.9860   30.9470 N.pl3 631  ARG631      0.1354
    150  NH2       43.7240   49.5660   29.3660 N.pl3 631  ARG631      0.1354
    151  N         31.0540   56.5340   34.1350 N.3   672  ASN672     -0.1225
    152  CA        31.9900   55.4190   33.9430 C.3   672  ASN672      0.1785
    153  C         31.1880   54.1280   33.6660 C.2   672  ASN672      0.2597
    154  O         31.2270   53.6020   32.5540 O.2   672  ASN672     -0.2718
    155  CB        32.8660   55.3030   35.2110 C.3   672  ASN672      0.1169
    156  CG        34.1690   54.5410   34.9770 C.2   672  ASN672      0.2627
    157  OD1       34.2100   53.5720   34.2140 O.2   672  ASN672     -0.2716
    158  ND2       35.2400   54.9710   35.6510 N.am  672  ASN672     -0.0877
    159  N         30.4940   53.6130   34.6800 N.am  673  VAL673     -0.1980
    160  CA        29.6050   52.4390   34.5050 C.3   673  VAL673      0.1595
    161  C         28.2420   53.1290   34.4640 C.2   673  VAL673      0.2287
    162  O         27.7160   53.5590   35.4930 O.2   673  VAL673     -0.2864
    163  CB        29.6410   51.4850   35.7050 C.3   673  VAL673      0.0276
    164  CG1       28.6120   50.3600   35.5170 C.3   673  VAL673      0.0022
    165  CG2       31.0260   50.9250   35.8510 C.3   673  VAL673      0.0022
    166  N         30.4340   57.5260   39.6340 N.3   702  HIS702     -0.1241
    167  CA        30.9660   56.2160   40.0270 C.3   702  HIS702      0.1621
    168  C         31.5290   56.1730   41.4540 C.2   702  HIS702      0.2264
    169  O         31.5920   55.1140   42.0790 O.2   702  HIS702     -0.2867
    170  CB        32.0410   55.7770   39.0160 C.3   702  HIS702      0.0745
    171  CG        32.2450   54.2920   38.9530 C.ar  702  HIS702      0.0817
    172  ND1       31.2140   53.4100   38.7090 N.ar  702  HIS702     -0.2268
    173  CD2       33.3590   53.5330   39.1180 C.ar  702  HIS702      0.1154
    174  CE1       31.6820   52.1710   38.7310 C.ar  702  HIS702      0.1986
    175  NE2       32.9790   52.2180   38.9750 N.ar  702  HIS702     -0.2212
@<TRIPOS>BOND
     1   140   141    1
     2   141   142    1
     3   141   144    1
     4   143   142    2
     5    36    34    1
     6   119   118    2
     7    35    34    1
     8   105   104    2
     9   144   145    1
    10   104   103    1
    11    34    31    1
    12   128   129    1
    13   118   117    1
    14   145   146    1
    15   106   103    1
    16   106   107    1
    17   116   117    1
    18   130   131    2
    19   130   129    1
    20   103   102    1
    21   147   146    1
    22   147   148    2
    23   129   132    1
    24    31    30    1
    25    31    32    1
    26   117   120    1
    27    58    55    1
    28    58    59    1
    29    55    56    1
    30    55    54    1
    31   150   148    1
    32    56    57    2
    33    30    23   am
    34    25    26    1
    35    25    22    1
    36   148   149    1
    37    32    33    2
    38   107   108   ar
    39   107   109   ar
    40    60    59    1
    41    60    61    1
    42    26    27    1
    43    63    62    1
    44    46    45    2
    45   120   121    1
    46    23    24    2
    47    23    22    1
    48   132   133    1
    49   108   110   ar
    50    54    45   am
    51    22    21    1
    52    45    44    1
    53   109   112   ar
    54   109   111   ar
    55   112   114   ar
    56    21    14   am
    57   121   123   ar
    58   121   122   ar
    59   123   125   ar
    60    62    61    2
    61    62    64    1
    62    27    29   ar
    63    27    28   ar
    64    12    13    1
    65   133   134   ar
    66   133   135   ar
    67   134   136   ar
    68   122   124   ar
    69   110   111   ar
    70   125   126   ar
    71   111   113   ar
    72   114   115   ar
    73    16    13    1
    74    16    17    1
    75    14    13    1
    76    14    15    2
    77    44    43    1
    78    44    47    1
    79   135   137   ar
    80   154   153    2
    81   124   126   ar
    82    37    38    1
    83   126   127    1
    84   136   138   ar
    85    17    18    1
    86    47    48    1
    87   115   113   ar
    88   100    99    1
    89   153   152    1
    90   153   159   am
    91   137   138   ar
    92   138   139    1
    93   152   151    1
    94   152   155    1
    95    38    39    1
    96    38    41    1
    97   157   156    2
    98    39    40    2
    99    48    49   ar
   100    48    50   ar
   101    49    51   ar
   102    18    19   ar
   103    18    20   ar
   104   161   160    1
   105   161   162    2
   106   160   159    1
   107   160   163    1
   108   101    99    1
   109    99    96    1
   110    42    41    1
   111   156   155    1
   112   156   158   am
   113    97    96    1
   114    97    98    2
   115    96    95    1
   116    94    93    1
   117   164   163    1
   118    51    53   ar
   119    50    52   ar
   120    92    93   ar
   121    92    90   ar
   122   163   165    1
   123    93    91   ar
   124    90    88   ar
   125     1     2    1
   126    53    52   ar
   127     5     2    1
   128     5     6    1
   129     2     3    1
   130    91    89   ar
   131    88    89   ar
   132    88    87    1
   133     3     4    2
   134     8     7    1
   135     8     9    2
   136    11     9    1
   137     7     6    1
   138    87    84    1
   139     9    10    1
   140   172   174   ar
   141   172   171   ar
   142   174   175   ar
   143    84    83    1
   144    84    85    1
   145   171   170    1
   146   171   173   ar
   147   175   173   ar
   148   170   167    1
   149    82    81    1
   150    76    75    1
   151    83    79   am
   152    80    79    2
   153   166   167    1
   154    86    85    2
   155    79    78    1
   156   167   168    1
   157    78    81    1
   158    78    77    1
   159    75    73   ar
   160    75    74   ar
   161    73    71   ar
   162    74    72   ar
   163   168   169    2
   164    68    67    2
   165    71    70   ar
   166    72    70   ar
   167    67    66    1
   168    70    69    1
   169    66    69    1
   170    66    65    1
