@<TRIPOS>MOLECULE
tmp/3d4nC01.pdb
 155 147 0 0 0
SMALL
GASTEIGER

@<TRIPOS>ATOM
      1  N        -15.9360   50.6320   10.7920 N.3   102  ILE102     -0.1245
      2  CA       -15.9140   50.3290    9.3560 C.3   102  ILE102      0.1561
      3  C        -16.7110   51.3730    8.5810 C.2   102  ILE102      0.2260
      4  O        -17.5390   52.0810    9.1500 O.2   102  ILE102     -0.2867
      5  CB       -16.5530   48.9660    9.0310 C.3   102  ILE102      0.0252
      6  CG1      -17.8650   48.7960    9.8070 C.3   102  ILE102      0.0019
      7  CG2      -15.5710   47.8260    9.2860 C.3   102  ILE102      0.0019
      8  CD1      -18.8120   47.7700    9.2260 C.3   102  ILE102      0.0001
      9  N        -21.4450   49.9010    4.7550 N.3   105  THR105     -0.1203
     10  CA       -21.3860   48.7680    3.8490 C.3   105  THR105      0.1994
     11  C        -22.7420   48.0810    3.8010 C.2   105  THR105      0.2619
     12  O        -23.4230   47.9700    4.8230 O.2   105  THR105     -0.2717
     13  CB       -20.3040   47.7530    4.2930 C.3   105  THR105      0.1784
     14  OG1      -19.0280   48.4020    4.3580 O.3   105  THR105     -0.2211
     15  CG2      -20.2180   46.5820    3.3220 C.3   105  THR105      0.0376
     16  N        -23.1410   47.6420    2.6100 N.am  106  SER106     -0.1937
     17  CA       -24.3540   46.8460    2.4680 C.3   106  SER106      0.2055
     18  C        -24.1540   45.7000    1.4870 C.2   106  SER106      0.2642
     19  O        -23.1090   45.5870    0.8450 O.2   106  SER106     -0.2714
     20  CB       -25.5540   47.7110    2.0610 C.3   106  SER106      0.2130
     21  OG       -25.3220   48.4000    0.8430 O.3   106  SER106     -0.2179
     22  N        -25.1640   44.8440    1.3820 N.am  107  LEU107     -0.1977
     23  CA       -25.0960   43.6960    0.4920 C.3   107  LEU107      0.1596
     24  C        -25.3190   44.1000   -0.9630 C.2   107  LEU107      0.2287
     25  O        -26.4120   44.5230   -1.3360 O.2   107  LEU107     -0.2864
     26  CB       -26.1150   42.6380    0.9120 C.3   107  LEU107      0.0297
     27  CG       -25.8560   41.9820    2.2710 C.3   107  LEU107      0.0022
     28  CD1      -26.8600   40.8720    2.5280 C.3   107  LEU107      0.0001
     29  CD2      -24.4290   41.4470    2.3580 C.3   107  LEU107      0.0001
     30  N        -14.0730   39.7450   10.7830 N.3   151  SER151     -0.1202
     31  CA       -15.2970   39.0470   10.3860 C.3   151  SER151      0.2020
     32  C        -15.0470   37.6620    9.7850 C.2   151  SER151      0.2619
     33  O        -13.9490   37.3720    9.3020 O.2   151  SER151     -0.2717
     34  CB       -16.0530   39.8970    9.3560 C.3   151  SER151      0.2103
     35  OG       -15.9030   41.2810    9.6190 O.3   151  SER151     -0.2182
     36  N        -16.0750   36.8150    9.8080 N.am  152  LEU152     -0.1965
     37  CA       -16.0390   35.5580    9.0690 C.3   152  LEU152      0.1728
     38  C        -15.5470   35.8420    7.6590 C.2   152  LEU152      0.2616
     39  O        -14.6910   35.1260    7.1270 O.2   152  LEU152     -0.2715
     40  CB       -17.4320   34.9340    8.9910 C.3   152  LEU152      0.0311
     41  CG       -18.0520   34.3940   10.2790 C.3   152  LEU152      0.0022
     42  CD1      -19.4030   33.7690    9.9750 C.3   152  LEU152      0.0001
     43  CD2      -17.1290   33.3810   10.9290 C.3   152  LEU152      0.0001
     44  N        -16.1020   36.9010    7.0670 N.am  153  ALA153     -0.1977
     45  CA       -15.7280   37.3760    5.7360 C.3   153  ALA153      0.1597
     46  C        -14.2600   37.8100    5.6330 C.2   153  ALA153      0.2287
     47  O        -13.7710   38.1330    4.5470 O.2   153  ALA153     -0.2864
     48  CB       -16.6550   38.5120    5.3070 C.3   153  ALA153      0.0319
     49  N        -17.2440   35.1630    0.7830 N.3   158  TYR158     -0.1228
     50  CA       -18.6780   35.2260    0.5250 C.3   158  TYR158      0.1721
     51  C        -18.9620   36.0810   -0.7030 C.2   158  TYR158      0.2437
     52  O        -18.1620   36.9330   -1.0640 O.2   158  TYR158     -0.2733
     53  CB       -19.4170   35.8320    1.7130 C.3   158  TYR158      0.0547
     54  CG       -19.3390   35.0180    2.9700 C.ar  158  TYR158     -0.0200
     55  CD1      -18.2990   35.1960    3.8650 C.ar  158  TYR158     -0.0009
     56  CD2      -20.3120   34.0770    3.2690 C.ar  158  TYR158     -0.0009
     57  CE1      -18.2270   34.4620    5.0190 C.ar  158  TYR158      0.0417
     58  CE2      -20.2490   33.3370    4.4240 C.ar  158  TYR158      0.0417
     59  CZ       -19.2020   33.5320    5.2970 C.ar  158  TYR158      0.1957
     60  OH       -19.1250   32.7910    6.4540 O.3   158  TYR158     -0.2866
     61  N        -20.1100   35.8540   -1.3520 N.am  159  PRO159     -0.2718
     62  CA       -20.5480   36.7980   -2.3710 C.3   159  PRO159      0.1535
     63  C        -21.1580   38.0380   -1.7400 C.2   159  PRO159      0.2598
     64  O        -21.6900   37.9720   -0.6350 O.2   159  PRO159     -0.2715
     65  CB       -21.6620   36.0360   -3.0850 C.3   159  PRO159      0.0310
     66  CG       -22.2230   35.1500   -2.0220 C.3   159  PRO159      0.0237
     67  CD       -21.0080   34.6870   -1.2620 C.3   159  PRO159      0.0939
     68  N        -21.0920   39.1600   -2.4480 N.am  160  MET160     -0.1964
     69  CA       -21.8150   40.3730   -2.0410 C.3   160  MET160      0.1736
     70  C        -21.1410   41.2550   -0.9820 C.2   160  MET160      0.2616
     71  O        -21.7230   42.2490   -0.5330 O.2   160  MET160     -0.2715
     72  CB       -23.2230   39.9980   -1.5990 C.3   160  MET160      0.0427
     73  CG       -23.9430   39.1690   -2.6360 C.3   160  MET160      0.0599
     74  SD       -25.7280   39.2570   -2.4640 S.3   160  MET160     -0.1393
     75  CE       -26.0550   40.9260   -3.0370 C.3   160  MET160      0.0692
     76  N        -19.9230   40.8900   -0.5910 N.am  161  VAL161     -0.1977
     77  CA       -19.1390   41.6620    0.3570 C.3   161  VAL161      0.1596
     78  C        -17.7000   41.6470   -0.1050 C.2   161  VAL161      0.2287
     79  O        -16.8080   41.3240    0.6720 O.2   161  VAL161     -0.2864
     80  CB       -19.1520   41.0290    1.7620 C.3   161  VAL161      0.0276
     81  CG1      -20.5040   41.2180    2.4510 C.3   161  VAL161      0.0022
     82  CG2      -18.7790   39.5640    1.6740 C.3   161  VAL161      0.0022
     83  N        -15.6150   44.8290    1.3730 N.3   164  TYR164     -0.1241
     84  CA       -15.5300   44.5180    2.7940 C.3   164  TYR164      0.1605
     85  C        -14.5050   43.4140    3.0330 C.2   164  TYR164      0.2264
     86  O        -13.4700   43.6290    3.6730 O.2   164  TYR164     -0.2867
     87  CB       -16.9100   44.0830    3.2940 C.3   164  TYR164      0.0534
     88  CG       -17.0230   43.7850    4.7740 C.ar  164  TYR164     -0.0201
     89  CD1      -17.4210   44.7670    5.6720 C.ar  164  TYR164     -0.0009
     90  CD2      -16.7760   42.5070    5.2670 C.ar  164  TYR164     -0.0009
     91  CE1      -17.5440   44.4900    7.0230 C.ar  164  TYR164      0.0417
     92  CE2      -16.8960   42.2230    6.6120 C.ar  164  TYR164      0.0417
     93  CZ       -17.2830   43.2160    7.4860 C.ar  164  TYR164      0.1957
     94  OH       -17.4050   42.9310    8.8260 O.3   164  TYR164     -0.2866
     95  N        -15.6820   37.7720   13.8510 N.3   196  LEU196     -0.1231
     96  CA       -17.0720   37.7300   14.2920 C.3   196  LEU196      0.1693
     97  C        -18.0360   37.1720   13.2650 C.2   196  LEU196      0.2593
     98  O        -17.8930   37.3950   12.0620 O.2   196  LEU196     -0.2718
     99  CB       -17.5420   39.1220   14.6860 C.3   196  LEU196      0.0284
    100  CG       -16.5680   39.8450   15.6050 C.3   196  LEU196      0.0019
    101  CD1      -17.0320   41.2670   15.8590 C.3   196  LEU196      0.0001
    102  CD2      -16.4270   39.0730   16.9100 C.3   196  LEU196      0.0001
    103  N        -19.0250   36.4470   13.7630 N.am  197  GLY197     -0.1942
    104  CA       -20.1150   35.9860   12.9360 C.3   197  GLY197      0.2014
    105  C        -21.1280   37.0960   12.9930 C.2   197  GLY197      0.2638
    106  O        -20.8080   38.1910   13.4440 O.2   197  GLY197     -0.2714
    107  N        -22.3490   36.8210   12.5560 N.am  198  LEU198     -0.1977
    108  CA       -23.3820   37.8410   12.5260 C.3   198  LEU198      0.1596
    109  C        -23.7310   38.2970   13.9380 C.2   198  LEU198      0.2287
    110  O        -23.9850   37.4760   14.8200 O.2   198  LEU198     -0.2864
    111  CB       -24.6280   37.3170   11.8100 C.3   198  LEU198      0.0297
    112  CG       -25.6970   38.3590   11.4820 C.3   198  LEU198      0.0022
    113  CD1      -25.1630   39.3750   10.4790 C.3   198  LEU198      0.0001
    114  CD2      -26.9360   37.6730   10.9380 C.3   198  LEU198      0.0001
    115  N        -26.2820   46.0340   10.7460 N.3   204  ALA204     -0.1245
    116  CA       -26.0030   44.7410   10.1380 C.3   204  ALA204      0.1562
    117  C        -27.2920   43.9620    9.9160 C.2   204  ALA204      0.2260
    118  O        -27.4400   43.2570    8.9190 O.2   204  ALA204     -0.2867
    119  CB       -25.0420   43.9430   11.0000 C.3   204  ALA204      0.0290
    120  N        -28.8750   45.3260    6.9570 N.3   207  ALA207     -0.1231
    121  CA       -28.1370   44.9650    5.7550 C.3   207  ALA207      0.1694
    122  C        -28.5200   43.5870    5.2290 C.2   207  ALA207      0.2591
    123  O        -28.4540   43.3410    4.0250 O.2   207  ALA207     -0.2718
    124  CB       -26.6380   45.0430    6.0070 C.3   207  ALA207      0.0304
    125  N        -28.9170   42.6910    6.1260 N.am  208  VAL208     -0.1980
    126  CA       -29.2080   41.3110    5.7360 C.3   208  VAL208      0.1595
    127  C        -30.6880   40.9450    5.8680 C.2   208  VAL208      0.2287
    128  O        -31.0460   39.7680    5.9050 O.2   208  VAL208     -0.2864
    129  CB       -28.3360   40.2930    6.5200 C.3   208  VAL208      0.0276
    130  CG1      -26.8610   40.5620    6.2770 C.3   208  VAL208      0.0022
    131  CG2      -28.6460   40.3410    8.0100 C.3   208  VAL208      0.0022
    132  N        -32.3010   38.3220    3.3820 N.3   211  ILE211     -0.1245
    133  CA       -31.7250   36.9700    3.3250 C.3   211  ILE211      0.1561
    134  C        -32.0060   36.1370    4.5870 C.2   211  ILE211      0.2260
    135  O        -32.3220   34.9460    4.5020 O.2   211  ILE211     -0.2867
    136  CB       -30.2030   36.9950    2.9430 C.3   211  ILE211      0.0252
    137  CG1      -29.3200   37.5660    4.0610 C.3   211  ILE211      0.0019
    138  CG2      -29.9960   37.7980    1.6730 C.3   211  ILE211      0.0019
    139  CD1      -28.5210   36.5140    4.8090 C.3   211  ILE211      0.0001
    140  N        -30.5420   33.5100    8.8370 N.3   212  MET212     -0.1245
    141  CA       -29.4280   34.2410    9.4280 C.3   212  MET212      0.1570
    142  C        -29.6270   34.4620   10.9230 C.2   212  MET212      0.2261
    143  O        -30.2310   35.4440   11.3370 O.2   212  MET212     -0.2867
    144  CB       -29.2520   35.5910    8.7320 C.3   212  MET212      0.0387
    145  CG       -30.4940   36.4820    8.7460 C.3   212  MET212      0.0595
    146  SD       -30.8520   37.3290   10.3070 S.3   212  MET212     -0.1393
    147  CE       -31.8970   38.6750    9.7410 C.3   212  MET212      0.0692
    148  N        -19.6240   33.5590   17.4780 N.3   238  ASP238     -0.1239
    149  CA       -20.7760   33.3380   16.6030 C.3   238  ASP238      0.1674
    150  C        -21.8660   32.6170   17.4090 C.2   238  ASP238      0.2266
    151  O        -21.5610   31.9480   18.3910 O.2   238  ASP238     -0.2867
    152  CB       -20.3550   32.5090   15.3800 C.3   238  ASP238      0.1410
    153  CG       -21.4050   32.4990   14.2740 C.2   238  ASP238      0.3668
    154  OD1      -22.0610   31.4540   14.0820 O.co2 238  ASP238     -0.2456
    155  OD2      -21.5770   33.5340   13.5950 O.co2 238  ASP238     -0.2456
@<TRIPOS>BOND
     1    65    62    1
     2    65    66    1
     3    75    74    1
     4    73    74    1
     5    73    72    1
     6    68    69    1
     7    68    63   am
     8    62    63    1
     9    62    61    1
    10    69    72    1
    11    69    70    1
    12    66    67    1
    13    63    64    2
    14    61    67    1
    15    61    51   am
    16    25    24    2
    17    52    51    2
    18    70    76   am
    19    70    71    2
    20    24    23    1
    21    51    50    1
    22    76    77    1
    23    78    77    1
    24    78    79    2
    25    77    80    1
    26    23    26    1
    27    23    22    1
    28    50    49    1
    29    50    53    1
    30    21    20    1
    31    19    18    2
    32    26    27    1
    33    83    84    1
    34    22    18   am
    35    18    17    1
    36   138   136    1
    37    82    80    1
    38    53    54    1
    39    80    81    1
    40    20    17    1
    41    27    29    1
    42    27    28    1
    43    17    16    1
    44    16    11   am
    45    84    85    1
    46    84    87    1
    47   136   133    1
    48   136   137    1
    49    54    56   ar
    50    54    55   ar
    51    85    86    2
    52    56    58   ar
    53    87    88    1
    54    15    13    1
    55   133   132    1
    56   133   134    1
    57    11    10    1
    58    11    12    2
    59    10    13    1
    60    10     9    1
    61    55    57   ar
    62   123   122    2
    63   137   139    1
    64    13    14    1
    65    58    59   ar
    66   135   134    2
    67    47    46    2
    68    88    90   ar
    69    88    89   ar
    70    57    59   ar
    71   122   121    1
    72   122   125   am
    73    90    92   ar
    74    59    60    1
    75    48    45    1
    76    46    45    1
    77    89    91   ar
    78    45    44    1
    79   126   127    1
    80   126   125    1
    81   126   129    1
    82   121   124    1
    83   121   120    1
    84   127   128    2
    85   130   129    1
    86   129   131    1
    87    92    93   ar
    88    91    93   ar
    89    44    38   am
    90    39    38    2
    91    93    94    1
    92    38    37    1
    93     3     4    2
    94     3     2    1
    95   144   145    1
    96   144   141    1
    97   145   146    1
    98   140   141    1
    99   118   117    2
   100    40    37    1
   101    40    41    1
   102     5     7    1
   103     5     2    1
   104     5     6    1
   105    37    36    1
   106     8     6    1
   107    33    32    2
   108    34    35    1
   109    34    31    1
   110     2     1    1
   111   141   142    1
   112   147   146    1
   113    32    36   am
   114    32    31    1
   115   117   116    1
   116    42    41    1
   117   116   115    1
   118   116   119    1
   119    41    43    1
   120    31    30    1
   121   113   112    1
   122   142   143    2
   123   114   112    1
   124   112   111    1
   125   111   108    1
   126    98    97    2
   127   108   107    1
   128   108   109    1
   129   107   105   am
   130   104   105    1
   131   104   103    1
   132   105   106    2
   133    97   103   am
   134    97    96    1
   135   155   153   ar
   136    95    96    1
   137   109   110    2
   138   154   153   ar
   139   153   152    1
   140    96    99    1
   141    99   100    1
   142   152   149    1
   143   100   101    1
   144   100   102    1
   145   149   150    1
   146   149   148    1
   147   150   151    2
