@<TRIPOS>MOLECULE
tmp/3d4qB00.pdb
 172 163 0 0 0
SMALL
GASTEIGER

@<TRIPOS>ATOM
      1  N         59.9170   32.8200    5.0490 N.3    16  ILE16      -0.1231
      2  CA        60.6830   33.5110    4.0260 C.3    16  ILE16       0.1692
      3  C         59.8600   33.8260    2.7610 C.2    16  ILE16       0.2593
      4  O         60.3420   34.5300    1.8560 O.2    16  ILE16      -0.2718
      5  CB        61.9360   32.6940    3.6490 C.3    16  ILE16       0.0266
      6  CG1       61.5510   31.2710    3.2860 C.3    16  ILE16       0.0019
      7  CG2       62.8630   32.5980    4.8080 C.3    16  ILE16       0.0020
      8  CD1       62.5620   30.6660    2.3680 C.3    16  ILE16       0.0001
      9  N         58.6300   33.3020    2.6990 N.am   17  GLY17      -0.1942
     10  CA        57.7170   33.6930    1.6400 C.3    17  GLY17       0.2014
     11  C         56.6530   32.6910    1.2280 C.2    17  GLY17       0.2640
     12  O         56.1820   31.8670    2.0420 O.2    17  GLY17      -0.2714
     13  N         56.2660   32.7590   -0.0480 N.am   18  SER18      -0.1935
     14  CA        55.2170   31.8870   -0.5890 C.3    18  SER18       0.2055
     15  C         55.6680   30.7980   -1.5550 C.2    18  SER18       0.2643
     16  O         56.7840   30.8130   -2.0850 O.2    18  SER18      -0.2714
     17  CB        54.1390   32.7150   -1.2950 C.3    18  SER18       0.2130
     18  OG        53.4880   33.5960   -0.4040 O.3    18  SER18      -0.2179
     19  N         54.7520   29.8680   -1.7880 N.am   19  GLY19      -0.1954
     20  CA        54.9500   28.7970   -2.7430 C.3    19  GLY19       0.1869
     21  C         53.5650   28.2870   -3.0660 C.2    19  GLY19       0.2309
     22  O         52.6040   28.6490   -2.4080 O.2    19  GLY19      -0.2863
     23  N         56.4430   29.3440    2.8590 N.3    24  VAL24      -0.1245
     24  CA        57.7490   28.7390    2.9550 C.3    24  VAL24       0.1561
     25  C         58.5560   29.2160    4.1670 C.2    24  VAL24       0.2260
     26  O         58.6900   30.4130    4.4260 O.2    24  VAL24      -0.2867
     27  CB        58.5720   28.9580    1.6490 C.3    24  VAL24       0.0252
     28  CG1       59.9030   28.2600    1.7590 C.3    24  VAL24       0.0019
     29  CG2       57.8140   28.3950    0.4380 C.3    24  VAL24       0.0019
     30  N         64.4660   23.7560    3.4380 N.3    34  ALA34      -0.1231
     31  CA        63.2880   24.5980    3.2260 C.3    34  ALA34       0.1694
     32  C         62.0750   23.7410    3.5470 C.2    34  ALA34       0.2592
     33  O         62.0500   22.5380    3.2270 O.2    34  ALA34      -0.2718
     34  CB        63.2320   25.0850    1.7840 C.3    34  ALA34       0.0304
     35  N         61.0880   24.3400    4.2100 N.am   35  VAL35      -0.1966
     36  CA        59.8190   23.6640    4.4820 C.3    35  VAL35       0.1727
     37  C         58.6770   24.4950    3.9120 C.2    35  VAL35       0.2616
     38  O         58.5780   25.7020    4.1920 O.2    35  VAL35      -0.2715
     39  CB        59.5420   23.5190    5.9960 C.3    35  VAL35       0.0290
     40  CG1       58.4280   22.4900    6.2130 C.3    35  VAL35       0.0023
     41  CG2       60.8070   23.1580    6.7310 C.3    35  VAL35       0.0023
     42  N         57.8140   23.8500    3.1220 N.am   36  LYS36      -0.1977
     43  CA        56.5510   24.4700    2.7150 C.3    36  LYS36       0.1596
     44  C         55.3700   23.8800    3.4650 C.2    36  LYS36       0.2287
     45  O         55.1480   22.6710    3.4720 O.2    36  LYS36      -0.2864
     46  CB        56.3100   24.3260    1.2120 C.3    36  LYS36       0.0298
     47  CG        55.1470   25.2280    0.7160 C.3    36  LYS36       0.0038
     48  CD        55.0030   25.2230   -0.8190 C.3    36  LYS36       0.0206
     49  CE        54.7020   23.8090   -1.3070 C.3    36  LYS36       0.1093
     50  NZ        54.2300   23.8170   -2.6980 N.3    36  LYS36      -0.1314
     51  N         51.8200   16.6870   -4.8630 N.3    54  GLU54      -0.1245
     52  CA        53.1470   17.2100   -4.9580 C.3    54  GLU54       0.1567
     53  C         54.1670   16.2460   -4.3580 C.2    54  GLU54       0.2260
     54  O         55.2310   16.0080   -4.9610 O.2    54  GLU54      -0.2867
     55  CB        53.2320   18.5660   -4.2840 C.3    54  GLU54       0.0388
     56  CG        54.6190   19.0810   -4.3760 C.3    54  GLU54       0.1160
     57  CD        54.8100   20.4690   -3.8110 C.2    54  GLU54       0.3649
     58  OE1       55.9340   20.9830   -3.9740 O.co2  54  GLU54      -0.2457
     59  OE2       53.8750   21.0490   -3.2220 O.co2  54  GLU54      -0.2457
     60  N         57.3570   14.7560   -6.3970 N.3    58  LEU58      -0.1245
     61  CA        58.7040   14.9420   -5.8740 C.3    58  LEU58       0.1561
     62  C         59.4650   13.5960   -5.6990 C.2    58  LEU58       0.2260
     63  O         60.6580   13.4620   -6.0430 O.2    58  LEU58      -0.2867
     64  CB        58.6450   15.7130   -4.5390 C.3    58  LEU58       0.0270
     65  CG        58.5170   17.2360   -4.6420 C.3    58  LEU58       0.0019
     66  CD1       58.4870   17.8650   -3.2570 C.3    58  LEU58       0.0001
     67  CD2       59.6870   17.7840   -5.4620 C.3    58  LEU58       0.0001
     68  N         65.3070   20.5640   -7.2710 N.3    67  LEU67      -0.1245
     69  CA        65.3770   20.7560   -5.8300 C.3    67  LEU67       0.1561
     70  C         65.1360   19.4030   -5.0820 C.2    67  LEU67       0.2260
     71  O         64.2100   18.6400   -5.3860 O.2    67  LEU67      -0.2867
     72  CB        64.3390   21.7940   -5.4260 C.3    67  LEU67       0.0270
     73  CG        64.2690   22.1690   -3.9480 C.3    67  LEU67       0.0019
     74  CD1       65.4180   23.1290   -3.6370 C.3    67  LEU67       0.0001
     75  CD2       62.9150   22.8470   -3.6060 C.3    67  LEU67       0.0001
     76  N         56.0360   19.9720    3.4390 N.3    80  ILE80      -0.1245
     77  CA        57.0030   19.3740    2.5380 C.3    80  ILE80       0.1561
     78  C         58.3820   19.9280    2.8070 C.2    80  ILE80       0.2260
     79  O         58.5520   21.1410    2.9000 O.2    80  ILE80      -0.2867
     80  CB        56.6630   19.6340    1.0870 C.3    80  ILE80       0.0252
     81  CG1       55.2250   19.1520    0.7960 C.3    80  ILE80       0.0019
     82  CG2       57.6980   18.9290    0.1900 C.3    80  ILE80       0.0019
     83  CD1       54.7490   19.2220   -0.6920 C.3    80  ILE80       0.0001
     84  N         62.5390   20.0820    1.7520 N.3    82  THR82      -0.1203
     85  CA        63.5450   19.9360    0.6930 C.3    82  THR82       0.1994
     86  C         64.8840   20.4430    1.1890 C.2    82  THR82       0.2618
     87  O         64.9690   21.1160    2.2150 O.2    82  THR82      -0.2717
     88  CB        63.2120   20.7780   -0.5610 C.3    82  THR82       0.1784
     89  OG1       63.2630   22.1670   -0.2150 O.3    82  THR82      -0.2211
     90  CG2       61.8170   20.4520   -1.1100 C.3    82  THR82       0.0376
     91  N         65.9410   20.1490    0.4440 N.am   83  GLN83      -0.1965
     92  CA        67.2180   20.8060    0.7030 C.3    83  GLN83       0.1733
     93  C         67.0360   22.3140    0.7900 C.2    83  GLN83       0.2616
     94  O         66.0940   22.8730    0.2280 O.2    83  GLN83      -0.2715
     95  CB        68.2280   20.4840   -0.3990 C.3    83  GLN83       0.0408
     96  CG        68.2250   21.3940   -1.6130 C.3    83  GLN83       0.0908
     97  CD        68.9690   20.7560   -2.7760 C.2    83  GLN83       0.2608
     98  OE1       68.3610   20.2820   -3.7610 O.2    83  GLN83      -0.2717
     99  NE2       70.2960   20.7200   -2.6670 N.am   83  GLN83      -0.0878
    100  N         67.9380   22.9760    1.5050 N.am   84  TRP84      -0.1960
    101  CA        67.9170   24.4290    1.5920 C.3    84  TRP84       0.1771
    102  C         68.8950   24.9780    0.5950 C.2    84  TRP84       0.2619
    103  O         70.0460   24.5970    0.6130 O.2    84  TRP84      -0.2715
    104  CB        68.3450   24.8980    2.9790 C.3    84  TRP84       0.0590
    105  CG        68.5250   26.3990    3.0390 C.ar   84  TRP84       0.0006
    106  CD1       69.7080   27.0970    3.0470 C.ar   84  TRP84       0.0946
    107  CD2       67.4760   27.3920    3.0300 C.ar   84  TRP84       0.0152
    108  NE1       69.4600   28.4570    3.0440 N.ar   84  TRP84      -0.2442
    109  CE2       68.1010   28.6640    3.0290 C.ar   84  TRP84       0.0810
    110  CE3       66.0790   27.3250    3.0140 C.ar   84  TRP84       0.0012
    111  CZ2       67.3680   29.8590    3.0150 C.ar   84  TRP84       0.0191
    112  CZ3       65.3540   28.5150    3.0020 C.ar   84  TRP84       0.0001
    113  CH2       66.0000   29.7620    3.0030 C.ar   84  TRP84       0.0015
    114  N         68.4520   25.8740   -0.2750 N.am   85  CYS85      -0.1968
    115  CA        69.3910   26.5420   -1.1860 C.3    85  CYS85       0.1712
    116  C         69.7820   27.9030   -0.6540 C.2    85  CYS85       0.2296
    117  O         68.9320   28.7460   -0.3860 O.2    85  CYS85      -0.2864
    118  CB        68.7840   26.7010   -2.5860 C.3    85  CYS85       0.0983
    119  SG        68.3620   25.1150   -3.3940 S.3    85  CYS85      -0.0798
    120  N         71.4200   31.4200   -1.3890 N.3    87  GLY87      -0.1210
    121  CA        71.3780   32.0780   -2.6870 C.3    87  GLY87       0.1956
    122  C         69.9500   32.5140   -2.8740 C.2    87  GLY87       0.2613
    123  O         69.2090   32.6130   -1.8920 O.2    87  GLY87      -0.2717
    124  N         69.5000   32.7820   -4.0790 N.am   88  SER88      -0.1938
    125  CA        68.0540   32.8400   -4.1410 C.3    88  SER88       0.2055
    126  C         67.4820   32.3370   -5.4440 C.2    88  SER88       0.2643
    127  O         68.1900   31.6920   -6.2330 O.2    88  SER88      -0.2714
    128  CB        67.5580   34.2580   -3.8300 C.3    88  SER88       0.2130
    129  OG        66.1540   34.2510   -3.5220 O.3    88  SER88      -0.2179
    130  N         66.1990   32.6070   -5.6580 N.am   89  SER89      -0.1949
    131  CA        65.6060   32.3960   -6.9690 C.3    89  SER89       0.1924
    132  C         66.3740   33.1970   -8.0250 C.2    89  SER89       0.2314
    133  O         67.0350   34.2100   -7.7290 O.2    89  SER89      -0.2863
    134  CB        64.1500   32.8270   -6.9560 C.3    89  SER89       0.2116
    135  OG        64.0690   34.1510   -6.4950 O.3    89  SER89      -0.2180
    136  N         64.8700   36.6470   -7.9180 N.3    92  HIS92      -0.1241
    137  CA        65.4490   37.5770   -6.9720 C.3    92  HIS92       0.1621
    138  C         66.7180   38.2710   -7.4850 C.2    92  HIS92       0.2264
    139  O         66.8980   39.4910   -7.3190 O.2    92  HIS92      -0.2867
    140  CB        65.7680   36.8440   -5.6790 C.3    92  HIS92       0.0745
    141  CG        66.1330   37.7630   -4.5590 C.ar   92  HIS92       0.0817
    142  ND1       67.4290   37.9070   -4.1080 N.ar   92  HIS92      -0.2268
    143  CD2       65.3820   38.6350   -3.8430 C.ar   92  HIS92       0.1154
    144  CE1       67.4650   38.8270   -3.1660 C.ar   92  HIS92       0.1986
    145  NE2       66.2370   39.2840   -2.9870 N.ar   92  HIS92      -0.2212
    146  N         60.9100   29.9860   -9.4690 N.3   134  ASN134     -0.1240
    147  CA        61.0170   28.5980   -9.0910 C.3   134  ASN134      0.1653
    148  C         62.3450   28.0270   -9.5410 C.2   134  ASN134      0.2266
    149  O         62.5120   26.8040   -9.6440 O.2   134  ASN134     -0.2867
    150  CB        59.8730   27.8180   -9.6970 C.3   134  ASN134      0.1155
    151  CG        58.5910   28.0630   -8.9670 C.2   134  ASN134      0.2627
    152  OD1       58.6150   28.4350   -7.7820 O.2   134  ASN134     -0.2716
    153  ND2       57.4430   27.8580   -9.6530 N.am  134  ASN134     -0.0877
    154  N         66.1820   28.0680   -8.5010 N.3   136  PHE136     -0.1241
    155  CA        66.9630   28.4510   -7.3310 C.3   136  PHE136      0.1605
    156  C         68.4310   28.2140   -7.6170 C.2   136  PHE136      0.2264
    157  O         68.8370   27.1910   -8.1810 O.2   136  PHE136     -0.2867
    158  CB        66.4960   27.6890   -6.0940 C.3   136  PHE136      0.0534
    159  CG        65.0810   27.9910   -5.7040 C.ar  136  PHE136     -0.0203
    160  CD1       64.0420   27.1920   -6.1500 C.ar  136  PHE136     -0.0042
    161  CD2       64.7790   29.0760   -4.8840 C.ar  136  PHE136     -0.0042
    162  CE1       62.7220   27.4580   -5.7860 C.ar  136  PHE136     -0.0003
    163  CE2       63.4560   29.3550   -4.5070 C.ar  136  PHE136     -0.0003
    164  CZ        62.4270   28.5370   -4.9600 C.ar  136  PHE136     -0.0000
    165  N         59.3050   23.7680   -6.5540 N.3   147  ASP147     -0.1239
    166  CA        57.8470   23.9510   -6.4740 C.3   147  ASP147      0.1674
    167  C         57.0210   23.1590   -7.4640 C.2   147  ASP147      0.2266
    168  O         56.8340   23.5660   -8.5990 O.2   147  ASP147     -0.2867
    169  CB        57.4340   25.4220   -6.5630 C.3   147  ASP147      0.1410
    170  CG        56.0940   25.6810   -5.8470 C.2   147  ASP147      0.3668
    171  OD1       55.3050   24.6980   -5.7230 O.co2 147  ASP147     -0.2456
    172  OD2       55.8330   26.8360   -5.3970 O.co2 147  ASP147     -0.2456
@<TRIPOS>BOND
     1   150   147    1
     2   150   151    1
     3   153   151   am
     4   149   148    2
     5   148   147    1
     6   146   147    1
     7   151   152    2
     8   168   167    2
     9   154   155    1
    10   157   156    2
    11   132   133    2
    12   132   131    1
    13   136   137    1
    14   156   155    1
    15   138   139    2
    16   138   137    1
    17   167   166    1
    18   155   158    1
    19    68    69    1
    20   137   140    1
    21   131   134    1
    22   131   130    1
    23   134   135    1
    24   169   166    1
    25   169   170    1
    26   165   166    1
    27    60    61    1
    28   127   126    2
    29   160   162   ar
    30   160   159   ar
    31   158   159    1
    32    63    62    2
    33    61    62    1
    34    61    64    1
    35   170   171   ar
    36   170   172   ar
    37    69    72    1
    38    69    70    1
    39   162   164   ar
    40   159   161   ar
    41   140   141    1
    42   130   126   am
    43    67    65    1
    44   126   125    1
    45    72    73    1
    46    71    70    2
    47    54    53    2
    48   164   163   ar
    49    52    51    1
    50    52    53    1
    51    52    55    1
    52   161   163   ar
    53    65    64    1
    54    65    66    1
    55   141   142   ar
    56   141   143   ar
    57    56    55    1
    58    56    57    1
    59   125   124    1
    60   125   128    1
    61   142   144   ar
    62   124   122   am
    63    58    57   ar
    64    73    74    1
    65    73    75    1
    66   143   145   ar
    67   128   129    1
    68    57    59   ar
    69    98    97    2
    70   119   118    1
    71   144   145   ar
    72    21    20    1
    73    21    22    2
    74   122   121    1
    75   122   123    2
    76    97    99   am
    77    97    96    1
    78    20    19    1
    79    50    49    1
    80   121   120    1
    81   118   115    1
    82    16    15    2
    83    19    15   am
    84    96    95    1
    85    15    14    1
    86    49    48    1
    87    17    14    1
    88    17    18    1
    89   115   116    1
    90   115   114    1
    91    90    88    1
    92    48    47    1
    93    83    81    1
    94   116   117    2
    95    14    13    1
    96    88    89    1
    97    88    85    1
    98    95    92    1
    99   114   102   am
   100    13    11   am
   101    82    80    1
   102    94    93    2
   103    29    27    1
   104    91    92    1
   105    91    86   am
   106   102   103    2
   107   102   101    1
   108    85    86    1
   109    85    84    1
   110    92    93    1
   111    47    46    1
   112    93   100   am
   113    81    80    1
   114    80    77    1
   115    86    87    2
   116    46    43    1
   117    11    10    1
   118    11    12    2
   119   100   101    1
   120   101   104    1
   121    10     9    1
   122    27    28    1
   123    27    24    1
   124    34    31    1
   125     4     3    2
   126     8     6    1
   127    77    78    1
   128    77    76    1
   129     9     3   am
   130    43    42    1
   131    43    44    1
   132     3     2    1
   133    78    79    2
   134    23    24    1
   135    24    25    1
   136   104   105    1
   137   112   113   ar
   138   112   110   ar
   139   113   111   ar
   140   110   107   ar
   141   111   109   ar
   142   109   107   ar
   143   109   108   ar
   144   107   105   ar
   145   105   106   ar
   146   108   106   ar
   147    42    37   am
   148    31    30    1
   149    31    32    1
   150    33    32    2
   151     6     5    1
   152    44    45    2
   153    32    35   am
   154     5     2    1
   155     5     7    1
   156    37    38    2
   157    37    36    1
   158     2     1    1
   159    25    26    2
   160    35    36    1
   161    36    39    1
   162    39    40    1
   163    39    41    1
