@<TRIPOS>MOLECULE
tmp/3d4sA03.pdb
 113 105 0 0 0
SMALL
GASTEIGER

@<TRIPOS>ATOM
      1  N         -0.3570    0.0160   38.2530 N.3    91  TRP91      -0.1241
      2  CA        -1.3050   -0.8420   37.5120 C.3    91  TRP91       0.1605
      3  C         -1.5530   -0.3210   36.0940 C.2    91  TRP91       0.2264
      4  O         -1.7940   -1.1180   35.1900 O.2    91  TRP91      -0.2867
      5  CB        -2.6350   -1.0330   38.2590 C.3    91  TRP91       0.0550
      6  CG        -2.5570   -2.1220   39.2760 C.ar   91  TRP91       0.0003
      7  CD1       -2.3650   -1.9940   40.6200 C.ar   91  TRP91       0.0946
      8  CD2       -2.6670   -3.5260   39.0190 C.ar   91  TRP91       0.0152
      9  NE1       -2.3510   -3.2290   41.2160 N.ar   91  TRP91      -0.2442
     10  CE2       -2.5340   -4.1890   40.2570 C.ar   91  TRP91       0.0810
     11  CE3       -2.8670   -4.2890   37.8600 C.ar   91  TRP91       0.0012
     12  CZ2       -2.5950   -5.5840   40.3730 C.ar   91  TRP91       0.0191
     13  CZ3       -2.9270   -5.6760   37.9740 C.ar   91  TRP91       0.0001
     14  CH2       -2.7910   -6.3070   39.2240 C.ar   91  TRP91       0.0015
     15  N          1.4220   -1.4120   34.1900 N.3    94  CYS94      -0.1221
     16  CA         1.3050   -2.8500   33.9640 C.3    94  CYS94       0.1808
     17  C          0.3760   -3.0910   32.7770 C.2    94  CYS94       0.2601
     18  O          0.6720   -3.9210   31.9170 O.2    94  CYS94      -0.2717
     19  CB         0.7910   -3.5710   35.2080 C.3    94  CYS94       0.0970
     20  SG         0.6190   -5.3660   34.9940 S.3    94  CYS94      -0.0800
     21  N         -0.7430   -2.3560   32.7460 N.am   95  VAL95      -0.1979
     22  CA        -1.7220   -2.4270   31.6490 C.3    95  VAL95       0.1595
     23  C         -1.0750   -1.9720   30.3260 C.2    95  VAL95       0.2287
     24  O         -1.3420   -2.5670   29.2780 O.2    95  VAL95      -0.2864
     25  CB        -3.0160   -1.6130   31.9700 C.3    95  VAL95       0.0276
     26  CG1       -3.8920   -1.4380   30.7370 C.3    95  VAL95       0.0022
     27  CG2       -3.8030   -2.2790   33.0880 C.3    95  VAL95       0.0022
     28  N          1.1520   -4.7730   29.0960 N.3    98  VAL98      -0.1231
     29  CA         0.3220   -5.8430   28.5450 C.3    98  VAL98       0.1692
     30  C         -0.2480   -5.4050   27.1880 C.2    98  VAL98       0.2592
     31  O         -0.2540   -6.1930   26.2460 O.2    98  VAL98      -0.2718
     32  CB        -0.7960   -6.2690   29.5370 C.3    98  VAL98       0.0266
     33  CG1       -1.7520   -7.2670   28.9040 C.3    98  VAL98       0.0020
     34  CG2       -0.1810   -6.8540   30.8010 C.3    98  VAL98       0.0020
     35  N         -0.7140   -4.1540   27.1030 N.am   99  ASP99      -0.1974
     36  CA        -1.2580   -3.5870   25.8590 C.3    99  ASP99       0.1709
     37  C         -0.2290   -3.6280   24.7360 C.2    99  ASP99       0.2293
     38  O         -0.5480   -4.0420   23.6200 O.2    99  ASP99      -0.2864
     39  CB        -1.7210   -2.1390   26.0620 C.3    99  ASP99       0.1436
     40  CG        -2.3000   -1.5140   24.7900 C.2    99  ASP99       0.3671
     41  OD1       -2.0620   -0.3070   24.5660 O.co2  99  ASP99      -0.2456
     42  OD2       -2.9860   -2.2200   24.0150 O.co2  99  ASP99      -0.2456
     43  N          0.4350   -7.4050   23.4220 N.3   102  PHE102     -0.1241
     44  CA        -0.5730   -7.8990   22.4660 C.3   102  PHE102      0.1605
     45  C         -0.5780   -7.1190   21.1430 C.2   102  PHE102      0.2264
     46  O         -1.0490   -7.6280   20.1220 O.2   102  PHE102     -0.2867
     47  CB        -1.9770   -7.8960   23.0880 C.3   102  PHE102      0.0534
     48  CG        -2.1980   -8.9960   24.0870 C.ar  102  PHE102     -0.0203
     49  CD1       -2.5970  -10.2580   23.6600 C.ar  102  PHE102     -0.0042
     50  CD2       -2.0120   -8.7790   25.4470 C.ar  102  PHE102     -0.0042
     51  CE1       -2.8050  -11.2850   24.5730 C.ar  102  PHE102     -0.0003
     52  CE2       -2.2190   -9.8000   26.3680 C.ar  102  PHE102     -0.0003
     53  CZ        -2.6150  -11.0530   25.9310 C.ar  102  PHE102     -0.0000
     54  N         -4.8780   -3.4280   20.1810 N.3   113  LEU113     -0.1231
     55  CA        -6.0470   -4.2380   19.8460 C.3   113  LEU113      0.1693
     56  C         -7.2990   -3.6430   20.4940 C.2   113  LEU113      0.2591
     57  O         -8.4190   -3.8970   20.0450 O.2   113  LEU113     -0.2718
     58  CB        -5.8530   -5.6930   20.2840 C.3   113  LEU113      0.0284
     59  CG        -4.6270   -6.4530   19.7600 C.3   113  LEU113      0.0019
     60  CD1       -4.6130   -7.8630   20.3280 C.3   113  LEU113      0.0001
     61  CD2       -4.5750   -6.4960   18.2390 C.3   113  LEU113      0.0001
     62  N         -7.0920   -2.8540   21.5500 N.am  114  LEU114     -0.1980
     63  CA        -8.1650   -2.1870   22.2660 C.3   114  LEU114      0.1596
     64  C         -8.6480   -0.9610   21.5180 C.2   114  LEU114      0.2287
     65  O         -7.8510   -0.2440   20.9050 O.2   114  LEU114     -0.2864
     66  CB        -7.6940   -1.7410   23.6520 C.3   114  LEU114      0.0297
     67  CG        -7.2550   -2.7750   24.6850 C.3   114  LEU114      0.0022
     68  CD1       -6.6750   -2.0790   25.9080 C.3   114  LEU114      0.0001
     69  CD2       -8.4100   -3.6850   25.0780 C.3   114  LEU114      0.0001
     70  N        -11.0570    0.2920   30.8040 N.3   122  ILE122     -0.1245
     71  CA        -9.9200   -0.3290   31.4930 C.3   122  ILE122      0.1561
     72  C         -9.4260    0.6390   32.5560 C.2   122  ILE122      0.2260
     73  O         -9.3370    0.2790   33.7300 O.2   122  ILE122     -0.2867
     74  CB        -8.7400   -0.6960   30.5490 C.3   122  ILE122      0.0252
     75  CG1       -9.1540   -1.6770   29.4370 C.3   122  ILE122      0.0019
     76  CG2       -7.5810   -1.2940   31.3480 C.3   122  ILE122      0.0019
     77  CD1       -9.6710   -3.0280   29.9150 C.3   122  ILE122      0.0001
     78  N        -11.1490   -0.1540   41.1910 N.3   129  VAL129     -0.1245
     79  CA       -10.5660   -1.2540   41.9860 C.3   129  VAL129      0.1561
     80  C         -9.4550   -0.7300   42.9080 C.2   129  VAL129      0.2260
     81  O         -9.3920   -1.1220   44.0770 O.2   129  VAL129     -0.2867
     82  CB       -10.0500   -2.4180   41.0950 C.3   129  VAL129      0.0252
     83  CG1       -9.3160   -3.4700   41.9170 C.3   129  VAL129      0.0019
     84  CG2      -11.1950   -3.0560   40.3240 C.3   129  VAL129      0.0019
     85  N         -9.3410   -0.8450   47.0010 N.3   133  THR133     -0.1218
     86  CA        -8.1810   -1.4410   47.7080 C.3   133  THR133      0.1862
     87  C         -7.2890   -0.4380   48.4730 C.2   133  THR133      0.2287
     88  O         -6.4970   -0.8540   49.3190 O.2   133  THR133     -0.2866
     89  CB        -7.2770   -2.2620   46.7470 C.3   133  THR133      0.1770
     90  OG1       -6.7650   -1.4110   45.7170 O.3   133  THR133     -0.2211
     91  CG2       -8.0550   -3.4150   46.1220 C.3   133  THR133      0.0375
     92  N         -0.3030   -6.7500   46.6310 N.3   175  VAL175     -0.1245
     93  CA        -1.4440   -6.5070   45.7320 C.3   175  VAL175      0.1561
     94  C         -1.3730   -5.1540   45.0070 C.2   175  VAL175      0.2260
     95  O         -1.6340   -5.0840   43.8050 O.2   175  VAL175     -0.2867
     96  CB        -2.7990   -6.6360   46.5010 C.3   175  VAL175      0.0252
     97  CG1       -3.9830   -6.2440   45.6290 C.3   175  VAL175      0.0019
     98  CG2       -2.9790   -8.0520   47.0330 C.3   175  VAL175      0.0019
     99  N          2.8260   -7.2360   42.7340 N.3   179  VAL179     -0.1245
    100  CA         2.1550   -8.0370   41.6820 C.3   179  VAL179      0.1561
    101  C          2.1730   -7.3140   40.3110 C.2   179  VAL179      0.2260
    102  O          2.6570   -7.9010   39.3430 O.2   179  VAL179     -0.2867
    103  CB         0.7070   -8.4890   42.0840 C.3   179  VAL179      0.0252
    104  CG1       -0.0380   -9.0850   40.8970 C.3   179  VAL179      0.0019
    105  CG2        0.7550   -9.4770   43.2340 C.3   179  VAL179      0.0019
    106  N          4.8570   -8.4270   36.9540 N.3   183  ILE183     -0.1245
    107  CA         4.2000   -8.6780   35.6670 C.3   183  ILE183      0.1561
    108  C          4.6920   -7.6580   34.6260 C.2   183  ILE183      0.2260
    109  O          5.0850   -8.0540   33.5340 O.2   183  ILE183     -0.2867
    110  CB         2.6530   -8.6740   35.7880 C.3   183  ILE183      0.0252
    111  CG1        2.1820   -9.8250   36.6820 C.3   183  ILE183      0.0019
    112  CG2        2.0020   -8.7960   34.4280 C.3   183  ILE183      0.0019
    113  CD1        0.6770   -9.8760   36.9090 C.3   183  ILE183      0.0001
@<TRIPOS>BOND
     1    61    59    1
     2    59    58    1
     3    59    60    1
     4    55    54    1
     5    55    58    1
     6    55    56    1
     7    57    56    2
     8    46    45    2
     9    56    62   am
    10    65    64    2
    11    45    44    1
    12    64    63    1
    13    62    63    1
    14    63    66    1
    15    44    47    1
    16    44    43    1
    17    47    48    1
    18    38    37    2
    19    66    67    1
    20    49    48   ar
    21    49    51   ar
    22    42    40   ar
    23    48    50   ar
    24    41    40   ar
    25    51    53   ar
    26    67    69    1
    27    67    68    1
    28    37    36    1
    29    40    39    1
    30    50    52   ar
    31    36    39    1
    32    36    35    1
    33    53    52   ar
    34    31    30    2
    35    35    30   am
    36    30    29    1
    37    29    28    1
    38    29    32    1
    39    33    32    1
    40    24    23    2
    41    75    77    1
    42    75    74    1
    43    32    34    1
    44    23    22    1
    45    74    76    1
    46    74    71    1
    47    26    25    1
    48    70    71    1
    49    71    72    1
    50    22    25    1
    51    22    21    1
    52    18    17    2
    53    25    27    1
    54    72    73    2
    55    21    17   am
    56    17    16    1
    57   109   108    2
    58    16    15    1
    59    16    19    1
    60   112   110    1
    61   108   107    1
    62    20    19    1
    63     4     3    2
    64   107   110    1
    65   107   106    1
    66   110   111    1
    67     3     2    1
    68   111   113    1
    69     2     1    1
    70     2     5    1
    71    11    13   ar
    72    11     8   ar
    73    13    14   ar
    74     5     6    1
    75     8     6   ar
    76     8    10   ar
    77    14    12   ar
    78     6     7   ar
    79   102   101    2
    80    10    12   ar
    81    10     9   ar
    82   101   100    1
    83    84    82    1
    84     7     9   ar
    85   104   103    1
    86    82    83    1
    87    82    79    1
    88    78    79    1
    89   100   103    1
    90   100    99    1
    91    79    80    1
    92   103   105    1
    93    80    81    2
    94    95    94    2
    95    94    93    1
    96    97    96    1
    97    90    89    1
    98    93    96    1
    99    93    92    1
   100    91    89    1
   101    96    98    1
   102    89    86    1
   103    85    86    1
   104    86    87    1
   105    87    88    2
