@<TRIPOS>MOLECULE
tmp/3d4sA00.pdb
 185 180 0 0 0
SMALL
GASTEIGER

@<TRIPOS>ATOM
      1  N         -6.0230   11.8810   53.0440 N.3    78  TRP78      -0.1227
      2  CA        -4.7280   12.2080   52.4230 C.3    78  TRP78       0.1737
      3  C         -3.8850   10.9600   52.1960 C.2    78  TRP78       0.2596
      4  O         -3.2510   10.8200   51.1480 O.2    78  TRP78      -0.2718
      5  CB        -3.9630   13.2140   53.2900 C.3    78  TRP78       0.0564
      6  CG        -2.5430   13.4360   52.9400 C.ar   78  TRP78       0.0003
      7  CD1       -2.0640   14.1560   51.8970 C.ar   78  TRP78       0.0946
      8  CD2       -1.3990   12.9380   53.6480 C.ar   78  TRP78       0.0152
      9  NE1       -0.6940   14.1380   51.9010 N.ar   78  TRP78      -0.2442
     10  CE2       -0.2570   13.3990   52.9650 C.ar   78  TRP78       0.0810
     11  CE3       -1.2300   12.1450   54.7920 C.ar   78  TRP78       0.0012
     12  CZ2        1.0440   13.0970   53.3810 C.ar   78  TRP78       0.0191
     13  CZ3        0.0700   11.8440   55.2080 C.ar   78  TRP78       0.0001
     14  CH2        1.1860   12.3200   54.5010 C.ar   78  TRP78       0.0015
     15  N         -3.8860   10.0660   53.1840 N.am   79  THR79      -0.1953
     16  CA        -3.1500    8.8050   53.1130 C.3    79  THR79       0.1897
     17  C         -3.7690    7.8840   52.0550 C.2    79  THR79       0.2313
     18  O         -3.0460    7.2130   51.3180 O.2    79  THR79      -0.2863
     19  CB        -3.1010    8.1060   54.4910 C.3    79  THR79       0.1794
     20  OG1       -2.4040    8.9410   55.4240 O.3    79  THR79      -0.2208
     21  CG2       -2.3850    6.7750   54.4020 C.3    79  THR79       0.0378
     22  N         -2.8930    9.1640   48.5970 N.3    82  ASP82      -0.1225
     23  CA        -1.4810    8.8630   48.3960 C.3    82  ASP82       0.1805
     24  C         -1.3280    7.4080   47.9490 C.2    82  ASP82       0.2597
     25  O         -0.6530    7.1320   46.9510 O.2    82  ASP82      -0.2718
     26  CB        -0.7030    9.1390   49.6880 C.3    82  ASP82       0.1424
     27  CG         0.8130    9.0730   49.5140 C.2    82  ASP82       0.3668
     28  OD1        1.3200    8.7750   48.4130 O.co2  82  ASP82      -0.2456
     29  OD2        1.5080    9.3330   50.5150 O.co2  82  ASP82      -0.2456
     30  N         -1.9570    6.4920   48.6890 N.am   83  VAL83      -0.1980
     31  CA        -1.9280    5.0570   48.3690 C.3    83  VAL83       0.1595
     32  C         -2.6170    4.7930   47.0160 C.2    83  VAL83       0.2287
     33  O         -2.1440    3.9570   46.2410 O.2    83  VAL83      -0.2864
     34  CB        -2.5440    4.1900   49.5170 C.3    83  VAL83       0.0276
     35  CG1       -2.6300    2.7180   49.1280 C.3    83  VAL83       0.0022
     36  CG2       -1.7280    4.3400   50.7970 C.3    83  VAL83       0.0022
     37  N         -0.3470    5.9190   43.7310 N.3    86  VAL86      -0.1231
     38  CA         0.7770    4.9970   43.5230 C.3    86  VAL86       0.1692
     39  C          0.2800    3.6760   42.9370 C.2    86  VAL86       0.2592
     40  O          0.8770    3.1550   41.9930 O.2    86  VAL86      -0.2718
     41  CB         1.5560    4.7410   44.8310 C.3    86  VAL86       0.0266
     42  CG1        2.6340    3.6660   44.6300 C.3    86  VAL86       0.0020
     43  CG2        2.1880    6.0240   45.3190 C.3    86  VAL86       0.0020
     44  N         -0.8110    3.1540   43.5080 N.am   87  THR87      -0.1953
     45  CA        -1.4450    1.9130   43.0590 C.3    87  THR87       0.1897
     46  C         -1.9690    2.0590   41.6330 C.2    87  THR87       0.2313
     47  O         -1.7590    1.1810   40.7950 O.2    87  THR87      -0.2863
     48  CB        -2.6110    1.5040   43.9880 C.3    87  THR87       0.1794
     49  OG1       -2.1520    1.4440   45.3450 O.3    87  THR87      -0.2208
     50  CG2       -3.1930    0.1450   43.5840 C.3    87  THR87       0.0378
     51  N         -0.0270   12.3250   62.5210 N.3   160  CYS160     -0.1235
     52  CA        -0.4740   11.6430   61.3010 C.3   160  CYS160      0.1677
     53  C          0.6280   10.7060   60.7790 C.2   160  CYS160      0.2270
     54  O          0.8850   10.6300   59.5730 O.2   160  CYS160     -0.2867
     55  CB        -0.9120   12.6740   60.2510 C.3   160  CYS160      0.0956
     56  SG        -1.8320   12.0740   58.7910 S.3   160  CYS160     -0.0801
     57  N          1.9630    7.1970   59.8220 N.3   162  PHE162     -0.1241
     58  CA         1.2540    6.0460   59.2620 C.3   162  PHE162      0.1605
     59  C          1.6850    4.6930   59.8590 C.2   162  PHE162      0.2264
     60  O          2.5240    3.9800   59.3000 O.2   162  PHE162     -0.2867
     61  CB         1.3960    6.0890   57.7240 C.3   162  PHE162      0.0534
     62  CG         0.5360    5.0950   56.9910 C.ar  162  PHE162     -0.0203
     63  CD1       -0.8400    5.0400   57.2230 C.ar  162  PHE162     -0.0042
     64  CD2        1.0910    4.2270   56.0590 C.ar  162  PHE162     -0.0042
     65  CE1       -1.6430    4.1270   56.5470 C.ar  162  PHE162     -0.0003
     66  CE2        0.2970    3.3140   55.3780 C.ar  162  PHE162     -0.0003
     67  CZ        -1.0750    3.2620   55.6210 C.ar  162  PHE162     -0.0000
     68  N          0.8640    0.9330   60.7450 N.3   164  THR164     -0.1218
     69  CA         0.0430   -0.1320   60.1910 C.3   164  THR164      0.1862
     70  C          0.3420   -1.4500   60.8620 C.2   164  THR164      0.2287
     71  O          1.4110   -1.6220   61.4560 O.2   164  THR164     -0.2866
     72  CB         0.2830   -0.3480   58.6740 C.3   164  THR164      0.1770
     73  OG1        1.6340   -0.7890   58.4580 O.3   164  THR164     -0.2211
     74  CG2        0.0510    0.9180   57.8970 C.3   164  THR164      0.0375
     75  N         -1.5230   -5.8020   56.9450 N.3   168  TYR168     -0.1227
     76  CA        -1.8230   -4.7780   55.9340 C.3   168  TYR168      0.1736
     77  C         -0.5780   -4.3880   55.1480 C.2   168  TYR168      0.2595
     78  O         -0.6060   -4.3570   53.9180 O.2   168  TYR168     -0.2718
     79  CB        -2.4380   -3.5230   56.5810 C.3   168  TYR168      0.0548
     80  CG        -2.6290   -2.3540   55.6210 C.ar  168  TYR168     -0.0200
     81  CD1       -3.7800   -2.2420   54.8420 C.ar  168  TYR168     -0.0009
     82  CD2       -1.6530   -1.3600   55.4940 C.ar  168  TYR168     -0.0009
     83  CE1       -3.9510   -1.1700   53.9640 C.ar  168  TYR168      0.0417
     84  CE2       -1.8200   -0.2930   54.6210 C.ar  168  TYR168      0.0417
     85  CZ        -2.9670   -0.2020   53.8600 C.ar  168  TYR168      0.1957
     86  OH        -3.1290    0.8570   52.9960 O.3   168  TYR168     -0.2866
     87  N          0.5010   -4.0940   55.8770 N.am  169  ALA169     -0.1980
     88  CA         1.7930   -3.6910   55.2970 C.3   169  ALA169      0.1597
     89  C          2.3400   -4.6760   54.2500 C.2   169  ALA169      0.2287
     90  O          3.0030   -4.2550   53.3050 O.2   169  ALA169     -0.2864
     91  CB         2.8160   -3.4790   56.4060 C.3   169  ALA169      0.0319
     92  N         -1.1150   -5.2740   51.2970 N.3   172  SER172     -0.1202
     93  CA        -1.2900   -4.0970   50.4390 C.3   172  SER172      0.2020
     94  C         -0.0940   -3.9230   49.5030 C.2   172  SER172      0.2619
     95  O         -0.2900   -3.6720   48.3290 O.2   172  SER172     -0.2717
     96  CB        -1.5050   -2.8240   51.2640 C.3   172  SER172      0.2103
     97  OG        -1.7030   -1.6990   50.4230 O.3   172  SER172     -0.2182
     98  N          1.1280   -4.0580   50.0250 N.am  173  SER173     -0.1951
     99  CA         2.3530   -3.9170   49.2110 C.3   173  SER173      0.1924
    100  C          2.4160   -4.9000   48.0370 C.2   173  SER173      0.2314
    101  O          2.8180   -4.5220   46.9370 O.2   173  SER173     -0.2863
    102  CB         3.6040   -4.0830   50.0770 C.3   173  SER173      0.2116
    103  OG         3.6790   -3.0630   51.0530 O.3   173  SER173     -0.2180
    104  N         -1.0180   -4.0940   45.7330 N.3   176  SER176     -0.1217
    105  CA        -0.9420   -2.7480   45.1450 C.3   176  SER176      0.1889
    106  C          0.3310   -2.4670   44.3440 C.2   176  SER176      0.2288
    107  O          0.2510   -1.7550   43.3490 O.2   176  SER176     -0.2866
    108  CB        -1.0540   -1.6700   46.2320 C.3   176  SER176      0.2089
    109  OG        -2.2250   -1.8340   47.0100 O.3   176  SER176     -0.2183
    110  N         10.3860    3.9940   43.2440 N.3   383  TRP383     -0.1241
    111  CA         9.4930    3.3750   44.2650 C.3   383  TRP383      0.1605
    112  C          9.9480    2.0560   44.8870 C.2   383  TRP383      0.2264
    113  O          9.5880    1.7870   46.0320 O.2   383  TRP383     -0.2867
    114  CB         8.0700    3.1600   43.7050 C.3   383  TRP383      0.0550
    115  CG         7.2490    4.3960   43.7030 C.ar  383  TRP383      0.0003
    116  CD1        6.7940    5.0890   42.6230 C.ar  383  TRP383      0.0946
    117  CD2        6.7850    5.0970   44.8590 C.ar  383  TRP383      0.0152
    118  NE1        6.0670    6.1810   43.0350 N.ar  383  TRP383     -0.2442
    119  CE2        6.0490    6.2080   44.4050 C.ar  383  TRP383      0.0810
    120  CE3        6.9220    4.8900   46.2400 C.ar  383  TRP383      0.0012
    121  CZ2        5.4480    7.1130   45.2810 C.ar  383  TRP383      0.0191
    122  CZ3        6.3270    5.7870   47.1080 C.ar  383  TRP383      0.0001
    123  CH2        5.5980    6.8870   46.6230 C.ar  383  TRP383      0.0015
    124  N         11.6120    2.1150   48.4810 N.3   386  PHE386     -0.1227
    125  CA        10.6080    2.4140   49.5070 C.3   386  PHE386      0.1736
    126  C          9.8370    1.1520   49.9000 C.2   386  PHE386      0.2595
    127  O          9.7170    0.8450   51.0880 O.2   386  PHE386     -0.2718
    128  CB         9.6540    3.5200   49.0250 C.3   386  PHE386      0.0547
    129  CG         8.4660    3.7500   49.9290 C.ar  386  PHE386     -0.0202
    130  CD1        8.5870    4.5060   51.0900 C.ar  386  PHE386     -0.0042
    131  CD2        7.2200    3.2100   49.6100 C.ar  386  PHE386     -0.0042
    132  CE1        7.4840    4.7170   51.9240 C.ar  386  PHE386     -0.0003
    133  CE2        6.1230    3.4150   50.4320 C.ar  386  PHE386     -0.0003
    134  CZ         6.2510    4.1700   51.5930 C.ar  386  PHE386     -0.0000
    135  N          9.3230    0.4330   48.9000 N.am  387  PHE387     -0.1976
    136  CA         8.5640   -0.8140   49.1400 C.3   387  PHE387      0.1639
    137  C          9.4500   -1.9430   49.7080 C.2   387  PHE387      0.2290
    138  O          8.9690   -2.7230   50.5320 O.2   387  PHE387     -0.2864
    139  CB         7.7840   -1.2490   47.8820 C.3   387  PHE387      0.0560
    140  CG         6.5340   -0.4410   47.6420 C.ar  387  PHE387     -0.0200
    141  CD1        6.5380    0.6720   46.8040 C.ar  387  PHE387     -0.0042
    142  CD2        5.3440   -0.8020   48.2670 C.ar  387  PHE387     -0.0042
    143  CE1        5.3720    1.4130   46.5910 C.ar  387  PHE387     -0.0003
    144  CE2        4.1780   -0.0710   48.0620 C.ar  387  PHE387     -0.0003
    145  CZ         4.1900    1.0380   47.2230 C.ar  387  PHE387     -0.0000
    146  N          9.7930   -1.1420   53.1880 N.3   390  ASN390     -0.1240
    147  CA         8.4830   -1.2940   53.8150 C.3   390  ASN390      0.1653
    148  C          8.2760   -2.7240   54.3370 C.2   390  ASN390      0.2266
    149  O          7.8230   -2.9040   55.4660 O.2   390  ASN390     -0.2867
    150  CB         7.3620   -0.9150   52.8420 C.3   390  ASN390      0.1155
    151  CG         6.0020   -0.8060   53.5190 C.2   390  ASN390      0.2627
    152  OD1        5.8720   -0.2310   54.6040 O.2   390  ASN390     -0.2716
    153  ND2        4.9810   -1.3550   52.8740 N.am  390  ASN390     -0.0877
    154  N         12.7870    6.0980   56.0300 N.3   405  TYR405     -0.1241
    155  CA        11.4890    5.7080   55.4660 C.3   405  TYR405      0.1605
    156  C         10.8190    6.8610   54.7050 C.2   405  TYR405      0.2264
    157  O         10.2680    6.6530   53.6200 O.2   405  TYR405     -0.2867
    158  CB        10.5800    5.1900   56.5900 C.3   405  TYR405      0.0534
    159  CG         9.2160    4.6890   56.1580 C.ar  405  TYR405     -0.0201
    160  CD1        8.0820    5.4980   56.2700 C.ar  405  TYR405     -0.0009
    161  CD2        9.0590    3.4040   55.6410 C.ar  405  TYR405     -0.0009
    162  CE1        6.8260    5.0380   55.8740 C.ar  405  TYR405      0.0417
    163  CE2        7.8080    2.9330   55.2420 C.ar  405  TYR405      0.0417
    164  CZ         6.6980    3.7540   55.3610 C.ar  405  TYR405      0.1957
    165  OH         5.4630    3.2910   54.9680 O.3   405  TYR405     -0.2866
    166  N         10.3570    7.7030   50.4460 N.3   409  ASN409     -0.1240
    167  CA         8.9870    7.9740   50.0520 C.3   409  ASN409      0.1653
    168  C          8.9620    9.2040   49.1380 C.2   409  ASN409      0.2266
    169  O          8.1470    9.2840   48.2160 O.2   409  ASN409     -0.2867
    170  CB         8.1100    8.1650   51.2940 C.3   409  ASN409      0.1155
    171  CG         6.6050    8.1230   51.0010 C.2   409  ASN409      0.2627
    172  OD1        5.8010    8.3420   51.9040 O.2   409  ASN409     -0.2716
    173  ND2        6.2260    7.8450   49.7600 N.am  409  ASN409     -0.0877
    174  N          7.8500   10.3420   45.5230 N.3   413  TYR413     -0.1241
    175  CA         7.0070   11.5240   45.2310 C.3   413  TYR413      0.1605
    176  C          7.5660   12.4000   44.1080 C.2   413  TYR413      0.2264
    177  O          6.7970   13.0020   43.3530 O.2   413  TYR413     -0.2867
    178  CB         6.7990   12.4720   46.4300 C.3   413  TYR413      0.0534
    179  CG         5.9640   11.9960   47.6070 C.ar  413  TYR413     -0.0201
    180  CD1        6.3810   12.2330   48.9170 C.ar  413  TYR413     -0.0009
    181  CD2        4.7680   11.3160   47.4180 C.ar  413  TYR413     -0.0009
    182  CE1        5.6300   11.8090   50.0040 C.ar  413  TYR413      0.0417
    183  CE2        4.0060   10.8830   48.5010 C.ar  413  TYR413      0.0417
    184  CZ         4.4440   11.1340   49.7910 C.ar  413  TYR413      0.1957
    185  OH         3.7010   10.7130   50.8680 O.3   413  TYR413     -0.2866
@<TRIPOS>BOND
     1    47    46    2
     2    46    45    1
     3    40    39    2
     4   116   118   ar
     5   116   115   ar
     6    39    44   am
     7    39    38    1
     8   118   119   ar
     9    45    44    1
    10    45    48    1
    11   110   111    1
    12   107   106    2
    13   177   176    2
    14    38    37    1
    15    38    41    1
    16    50    48    1
    17   115   114    1
    18   115   117   ar
    19   114   111    1
    20    48    49    1
    21   176   175    1
    22   111   112    1
    23   106   105    1
    24   119   117   ar
    25   119   121   ar
    26    42    41    1
    27    41    43    1
    28   117   120   ar
    29   112   113    2
    30   105   104    1
    31   105   108    1
    32   175   174    1
    33   175   178    1
    34   121   123   ar
    35   108   109    1
    36   120   122   ar
    37    33    32    2
    38   178   179    1
    39   143   141   ar
    40   143   145   ar
    41   123   122   ar
    42   141   140   ar
    43   101   100    2
    44    25    24    2
    45    32    31    1
    46   145   144   ar
    47   181   179   ar
    48   181   183   ar
    49   179   180   ar
    50   140   139    1
    51   140   142   ar
    52   139   136    1
    53    24    23    1
    54    24    30   am
    55   100    99    1
    56   144   142   ar
    57   169   168    2
    58    95    94    2
    59    31    30    1
    60    31    34    1
    61    23    22    1
    62    23    26    1
    63    28    27   ar
    64   124   125    1
    65   183   184   ar
    66   135   136    1
    67   135   126   am
    68   180   182   ar
    69   128   125    1
    70   128   129    1
    71    35    34    1
    72   168   167    1
    73   136   137    1
    74    99    98    1
    75    99   102    1
    76    94    98   am
    77    94    93    1
    78   125   126    1
    79    27    26    1
    80    27    29   ar
    81    34    36    1
    82   131   129   ar
    83   131   133   ar
    84   137   138    2
    85   173   171   am
    86   184   182   ar
    87   184   185    1
    88   126   127    2
    89   129   130   ar
    90   167   166    1
    91   167   170    1
    92   102   103    1
    93    97    96    1
    94   133   134   ar
    95    93    96    1
    96    93    92    1
    97   171   170    1
    98   171   172    2
    99   130   132   ar
   100     4     3    2
   101    18    17    2
   102   134   132   ar
   103     7     9   ar
   104     7     6   ar
   105     9    10   ar
   106    17    16    1
   107     3     2    1
   108     3    15   am
   109     2     1    1
   110     2     5    1
   111   150   151    1
   112   150   147    1
   113   153   151   am
   114     6     5    1
   115     6     8   ar
   116    10    12   ar
   117    10     8   ar
   118    86    85    1
   119    16    15    1
   120    16    19    1
   121   146   147    1
   122    90    89    2
   123    12    14   ar
   124   151   152    2
   125   157   156    2
   126     8    11   ar
   127   147   148    1
   128    85    83   ar
   129    85    84   ar
   130    78    77    2
   131    83    81   ar
   132    89    88    1
   133   148   149    2
   134    21    19    1
   135    19    20    1
   136    14    13   ar
   137    84    82   ar
   138   156   155    1
   139    11    13   ar
   140    81    80   ar
   141   165   164    1
   142    77    87   am
   143    77    76    1
   144   163   164   ar
   145   163   161   ar
   146    88    87    1
   147    88    91    1
   148   164   162   ar
   149    66    67   ar
   150    66    64   ar
   151   155   154    1
   152   155   158    1
   153    82    80   ar
   154    80    79    1
   155    67    65   ar
   156   161   159   ar
   157   162   160   ar
   158    76    79    1
   159    76    75    1
   160    64    62   ar
   161   159   160   ar
   162   159   158    1
   163    65    63   ar
   164    62    63   ar
   165    62    61    1
   166    61    58    1
   167    74    72    1
   168    73    72    1
   169    72    69    1
   170    56    55    1
   171    58    57    1
   172    58    59    1
   173    60    59    2
   174    54    53    2
   175    69    68    1
   176    69    70    1
   177    55    52    1
   178    53    52    1
   179    70    71    2
   180    52    51    1
