@<TRIPOS>MOLECULE
tmp/3d54I00.pdb
 178 170 0 0 0
SMALL
GASTEIGER

@<TRIPOS>ATOM
      1  N         72.2600   79.8740   20.7320 N.3   102  PHE102     -0.1227
      2  CA        73.3650   79.6810   21.6830 C.3   102  PHE102      0.1736
      3  C         74.6180   80.3950   21.1690 C.2   102  PHE102      0.2595
      4  O         74.8450   80.4480   19.9640 O.2   102  PHE102     -0.2718
      5  CB        73.6780   78.1900   21.8200 C.3   102  PHE102      0.0547
      6  CG        72.8590   77.4790   22.8500 C.ar  102  PHE102     -0.0202
      7  CD1       73.4710   76.9960   24.0170 C.ar  102  PHE102     -0.0042
      8  CD2       71.4830   77.2580   22.6590 C.ar  102  PHE102     -0.0042
      9  CE1       72.7290   76.2950   24.9960 C.ar  102  PHE102     -0.0003
     10  CE2       70.7220   76.5630   23.6220 C.ar  102  PHE102     -0.0003
     11  CZ        71.3470   76.0780   24.7990 C.ar  102  PHE102     -0.0000
     12  N         75.4420   80.9090   22.0830 N.am  103  ASP103     -0.1974
     13  CA        76.6680   81.6200   21.6940 C.3   103  ASP103      0.1709
     14  C         77.8860   81.0340   22.4130 C.2   103  ASP103      0.2293
     15  O         78.0210   81.1490   23.6350 O.2   103  ASP103     -0.2864
     16  CB        76.5320   83.1230   21.9600 C.3   103  ASP103      0.1436
     17  CG        76.3090   83.4790   23.4430 C.2   103  ASP103      0.3671
     18  OD1       75.3250   83.0040   24.0390 O.co2 103  ASP103     -0.2456
     19  OD2       77.1300   84.2320   24.0150 O.co2 103  ASP103     -0.2456
     20  N         71.2980   80.3820   26.4140 N.3   131  GLY131     -0.1210
     21  CA        72.5260   79.7800   26.8970 C.3   131  GLY131      0.1956
     22  C         73.7060   79.8840   25.9720 C.2   131  GLY131      0.2612
     23  O         73.5630   80.2170   24.8040 O.2   131  GLY131     -0.2717
     24  N         74.8800   79.5920   26.5030 N.am  132  GLY132     -0.1942
     25  CA        76.0680   79.6520   25.6900 C.3   132  GLY132      0.2014
     26  C         77.2850   79.4680   26.5450 C.2   132  GLY132      0.2639
     27  O         77.1650   79.3200   27.7590 O.2   132  GLY132     -0.2714
     28  N         78.4520   79.4730   25.9030 N.am  133  GLU133     -0.1963
     29  CA        79.7400   79.3090   26.5910 C.3   133  GLU133      0.1733
     30  C         80.4690   80.6500   26.6880 C.2   133  GLU133      0.2616
     31  O         80.2220   81.5820   25.9120 O.2   133  GLU133     -0.2715
     32  CB        80.6280   78.3170   25.8380 C.3   133  GLU133      0.0429
     33  CG        80.3330   76.8650   26.1030 C.3   133  GLU133      0.1163
     34  CD        81.3760   75.9650   25.4860 C.2   133  GLU133      0.3649
     35  OE1       81.2960   75.7050   24.2650 O.co2 133  GLU133     -0.2457
     36  OE2       82.2830   75.5190   26.2200 O.co2 133  GLU133     -0.2457
     37  N         81.4040   80.6850   27.6350 N.am  134  LEU134     -0.1963
     38  CA        82.2400   81.8550   27.9380 C.3   134  LEU134      0.1728
     39  C         83.5860   81.3730   28.4910 C.2   134  LEU134      0.2616
     40  O         83.9050   81.5420   29.6830 O.2   134  LEU134     -0.2715
     41  CB        81.5140   82.7400   28.9560 C.3   134  LEU134      0.0311
     42  CG        81.7820   84.2450   29.0220 C.3   134  LEU134      0.0022
     43  CD1       81.3260   84.9600   27.7360 C.3   134  LEU134      0.0001
     44  CD2       81.0710   84.8150   30.2350 C.3   134  LEU134      0.0001
     45  N         84.3570   80.7170   27.6190 N.am  135  ARG135     -0.1977
     46  CA        85.6900   80.2060   27.9710 C.3   135  ARG135      0.1597
     47  C         86.7080   81.3280   27.7550 C.2   135  ARG135      0.2287
     48  O         87.1160   81.6040   26.6230 O.2   135  ARG135     -0.2864
     49  CB        86.0280   78.9900   27.1040 C.3   135  ARG135      0.0334
     50  CG        85.0970   77.7560   27.2570 C.3   135  ARG135      0.0492
     51  CD        85.0680   77.1460   28.6780 C.3   135  ARG135      0.2205
     52  NE        84.1640   75.9910   28.8160 N.pl3 135  ARG135     -0.0865
     53  CZ        83.0900   75.9370   29.6140 C.cat 135  ARG135      0.5346
     54  NH1       82.7380   76.9700   30.3710 N.pl3 135  ARG135      0.1354
     55  NH2       82.3700   74.8260   29.6820 N.pl3 135  ARG135      0.1354
     56  N         84.4160   83.2670   35.3790 N.3   344  VAL344     -0.1245
     57  CA        83.5760   84.4710   35.2860 C.3   344  VAL344      0.1561
     58  C         82.1040   84.1410   35.5390 C.2   344  VAL344      0.2260
     59  O         81.6870   82.9760   35.5420 O.2   344  VAL344     -0.2867
     60  CB        83.7250   85.1980   33.9110 C.3   344  VAL344      0.0252
     61  CG1       84.9230   86.1480   33.9390 C.3   344  VAL344      0.0019
     62  CG2       83.8600   84.1880   32.7690 C.3   344  VAL344      0.0019
     63  N         78.4380   84.3520   34.2970 N.3   346  ALA346     -0.1245
     64  CA        77.7370   84.3690   33.0040 C.3   346  ALA346      0.1562
     65  C         76.4830   85.2470   33.0410 C.2   346  ALA346      0.2260
     66  O         76.0260   85.6730   31.9770 O.2   346  ALA346     -0.2867
     67  CB        77.3930   82.9750   32.5490 C.3   346  ALA346      0.0290
     68  N         76.5440   88.4350   31.2350 N.3   349  VAL349     -0.1231
     69  CA        76.5240   88.3010   29.7720 C.3   349  VAL349      0.1692
     70  C         75.1340   87.9000   29.2710 C.2   349  VAL349      0.2592
     71  O         74.7060   88.4050   28.2220 O.2   349  VAL349     -0.2718
     72  CB        77.6290   87.3300   29.2650 C.3   349  VAL349      0.0266
     73  CG1       77.5990   87.1900   27.7240 C.3   349  VAL349      0.0020
     74  CG2       78.9950   87.8390   29.7050 C.3   349  VAL349      0.0020
     75  N         74.4040   87.0370   29.9810 N.am  350  PHE350     -0.1976
     76  CA        73.0860   86.6790   29.4360 C.3   350  PHE350      0.1639
     77  C         71.9400   87.5780   29.9070 C.2   350  PHE350      0.2290
     78  O         70.8690   87.5360   29.3040 O.2   350  PHE350     -0.2864
     79  CB        72.7770   85.1820   29.5140 C.3   350  PHE350      0.0560
     80  CG        72.7180   84.6010   30.8960 C.ar  350  PHE350     -0.0200
     81  CD1       73.7150   83.7100   31.3150 C.ar  350  PHE350     -0.0042
     82  CD2       71.5990   84.8210   31.7410 C.ar  350  PHE350     -0.0042
     83  CE1       73.6010   83.0340   32.5560 C.ar  350  PHE350     -0.0003
     84  CE2       71.4700   84.1560   32.9770 C.ar  350  PHE350     -0.0003
     85  CZ        72.4720   83.2610   33.3860 C.ar  350  PHE350     -0.0000
     86  N         70.7650   89.4770   27.1600 N.3   353  TYR353     -0.1241
     87  CA        70.0670   88.7200   26.1100 C.3   353  TYR353      0.1605
     88  C         68.6340   88.4160   26.5530 C.2   353  TYR353      0.2264
     89  O         68.4190   88.0470   27.7110 O.2   353  TYR353     -0.2867
     90  CB        70.7570   87.3690   25.9100 C.3   353  TYR353      0.0534
     91  CG        72.2200   87.3320   25.5210 C.ar  353  TYR353     -0.0201
     92  CD1       73.0190   86.2370   25.8930 C.ar  353  TYR353     -0.0009
     93  CD2       72.8050   88.3350   24.7310 C.ar  353  TYR353     -0.0009
     94  CE1       74.3730   86.1290   25.4900 C.ar  353  TYR353      0.0417
     95  CE2       74.1660   88.2400   24.3130 C.ar  353  TYR353      0.0417
     96  CZ        74.9370   87.1300   24.6990 C.ar  353  TYR353      0.1957
     97  OH        76.2430   87.0100   24.2880 O.3   353  TYR353     -0.2866
     98  N         68.9340   79.9580   31.3780 N.3   365  PRO365     -0.2102
     99  CA        70.3450   79.6210   31.6110 C.3   365  PRO365      0.1504
    100  C         70.9410   80.0030   32.9700 C.2   365  PRO365      0.2576
    101  O         70.4040   80.8550   33.7030 O.2   365  PRO365     -0.2718
    102  CB        71.0590   80.3420   30.4660 C.3   365  PRO365      0.0282
    103  CG        70.1280   81.4660   30.1340 C.3   365  PRO365      0.0208
    104  CD        68.8060   80.7960   30.1760 C.3   365  PRO365      0.0893
    105  N         72.0520   79.3420   33.2950 N.am  366  GLY366     -0.1957
    106  CA        72.7570   79.5460   34.5510 C.3   366  GLY366      0.1869
    107  C         73.2710   78.1970   35.0040 C.2   366  GLY366      0.2309
    108  O         74.4830   77.9940   35.1550 O.2   366  GLY366     -0.2863
    109  N         73.8170   75.2640   33.5660 N.3   368  GLY368     -0.1225
    110  CA        74.1160   74.5080   32.3550 C.3   368  GLY368      0.1811
    111  C         73.0880   74.3940   31.2400 C.2   368  GLY368      0.2280
    112  O         72.7820   75.3750   30.5530 O.2   368  GLY368     -0.2866
    113  N         75.6310   73.2640   25.2670 N.3   384  THR384     -0.1218
    114  CA        76.8190   73.5420   24.4460 C.3   384  THR384      0.1862
    115  C         78.0520   73.3710   25.3350 C.2   384  THR384      0.2287
    116  O         78.1490   74.0090   26.3910 O.2   384  THR384     -0.2866
    117  CB        76.7330   74.9480   23.7630 C.3   384  THR384      0.1770
    118  OG1       75.8200   74.8770   22.6580 O.3   384  THR384     -0.2211
    119  CG2       78.0770   75.4160   23.2300 C.3   384  THR384      0.0375
    120  N         75.6390   66.5060   30.9080 N.3   409  LYS409     -0.1245
    121  CA        74.8770   67.7270   31.2100 C.3   409  LYS409      0.1561
    122  C         73.4400   67.6250   30.6870 C.2   409  LYS409      0.2260
    123  O         72.5420   68.2440   31.2740 O.2   409  LYS409     -0.2867
    124  CB        75.5730   68.9440   30.5960 C.3   409  LYS409      0.0271
    125  CG        76.9070   69.3370   31.2430 C.3   409  LYS409      0.0035
    126  CD        77.4010   70.7080   30.7540 C.3   409  LYS409      0.0206
    127  CE        78.7290   71.1080   31.3990 C.3   409  LYS409      0.1093
    128  NZ        79.1120   72.5360   31.1510 N.3   409  LYS409     -0.1314
    129  N         73.7540   68.7340   38.8010 N.3   526  LEU526     -0.1231
    130  CA        74.6180   69.7770   38.2270 C.3   526  LEU526      0.1693
    131  C         75.9780   69.1920   37.8380 C.2   526  LEU526      0.2593
    132  O         76.8090   68.9120   38.7060 O.2   526  LEU526     -0.2718
    133  CB        74.8260   70.8940   39.2530 C.3   526  LEU526      0.0284
    134  CG        74.0400   72.1990   39.1120 C.3   526  LEU526      0.0019
    135  CD1       74.3520   73.1070   40.2840 C.3   526  LEU526      0.0001
    136  CD2       74.3820   72.8830   37.7910 C.3   526  LEU526      0.0001
    137  N         76.2150   69.0430   36.5340 N.am  527  SER527     -0.1938
    138  CA        77.4870   68.5080   36.0240 C.3   527  SER527      0.2055
    139  C         78.3480   69.6420   35.4640 C.2   527  SER527      0.2644
    140  O         78.0220   70.1930   34.4100 O.2   527  SER527     -0.2714
    141  CB        77.2250   67.4920   34.9090 C.3   527  SER527      0.2130
    142  OG        78.4440   67.1000   34.2800 O.3   527  SER527     -0.2179
    143  N         79.4480   69.9670   36.1440 N.am  528  SER528     -0.1935
    144  CA        80.3460   71.0220   35.6510 C.3   528  SER528      0.2055
    145  C         81.8030   70.6220   35.8910 C.2   528  SER528      0.2643
    146  O         82.1180   69.8560   36.8090 O.2   528  SER528     -0.2714
    147  CB        80.0370   72.3640   36.3200 C.3   528  SER528      0.2130
    148  OG        80.0910   73.4370   35.3780 O.3   528  SER528     -0.2179
    149  N         82.6620   71.1700   35.0330 N.am  529  SER529     -0.1949
    150  CA        84.1180   70.9640   35.0100 C.3   529  SER529      0.1924
    151  C         84.7370   71.3290   36.3620 C.2   529  SER529      0.2314
    152  O         85.6220   70.6230   36.8380 O.2   529  SER529     -0.2863
    153  CB        84.7270   71.8480   33.9200 C.3   529  SER529      0.2116
    154  OG        83.9140   71.8740   32.7550 O.3   529  SER529     -0.2180
    155  N         80.3600   76.7340   39.8410 N.3   533  THR533     -0.1218
    156  CA        81.0050   77.9810   39.3990 C.3   533  THR533      0.1862
    157  C         80.3490   79.2100   40.0320 C.2   533  THR533      0.2287
    158  O         79.3000   79.1310   40.6870 O.2   533  THR533     -0.2866
    159  CB        81.0410   78.1830   37.8290 C.3   533  THR533      0.1770
    160  OG1       79.7240   78.1080   37.2710 O.3   533  THR533     -0.2211
    161  CG2       81.9480   77.1720   37.1660 C.3   533  THR533      0.0375
    162  N         78.9270   81.4210   38.5170 N.3   535  THR535     -0.1203
    163  CA        77.6630   81.5230   37.7710 C.3   535  THR535      0.1994
    164  C         76.5350   80.7890   38.5000 C.2   535  THR535      0.2617
    165  O         75.4220   81.3010   38.6010 O.2   535  THR535     -0.2717
    166  CB        77.8230   80.9000   36.3610 C.3   535  THR535      0.1784
    167  OG1       78.9850   81.4420   35.7210 O.3   535  THR535     -0.2211
    168  CG2       76.5990   81.1740   35.5080 C.3   535  THR535      0.0376
    169  N         76.8450   79.6000   39.0110 N.am  536  HIS536     -0.1975
    170  CA        75.8830   78.7470   39.7250 C.3   536  HIS536      0.1656
    171  C         75.3960   79.4120   41.0140 C.2   536  HIS536      0.2291
    172  O         74.2040   79.3830   41.2690 O.2   536  HIS536     -0.2864
    173  CB        76.5390   77.4070   40.0580 C.3   536  HIS536      0.0771
    174  CG        76.8830   76.5870   38.8560 C.ar  536  HIS536      0.0820
    175  ND1       77.0570   77.1280   37.5990 N.ar  536  HIS536     -0.2267
    176  CD2       77.0640   75.2540   38.7180 C.ar  536  HIS536      0.1154
    177  CE1       77.3260   76.1640   36.7380 C.ar  536  HIS536      0.1986
    178  NE2       77.3360   75.0170   37.3920 N.ar  536  HIS536     -0.2212
@<TRIPOS>BOND
     1     4     3    2
     2     1     2    1
     3     3     2    1
     4     3    12   am
     5     2     5    1
     6    13    16    1
     7    13    12    1
     8    13    14    1
     9     5     6    1
    10    16    17    1
    11    14    15    2
    12   118   117    1
    13     8     6   ar
    14     8    10   ar
    15     6     7   ar
    16   119   117    1
    17    17    19   ar
    18    17    18   ar
    19    10    11   ar
    20   117   114    1
    21     7     9   ar
    22    35    34   ar
    23    97    96    1
    24    95    96   ar
    25    95    93   ar
    26   114   113    1
    27   114   115    1
    28    96    94   ar
    29    93    91   ar
    30    11     9   ar
    31    23    22    2
    32   115   116    2
    33    34    33    1
    34    34    36   ar
    35    94    92   ar
    36    91    92   ar
    37    91    90    1
    38    25    24    1
    39    25    26    1
    40    32    33    1
    41    32    29    1
    42    28    26   am
    43    28    29    1
    44    90    87    1
    45    31    30    2
    46    22    24   am
    47    22    21    1
    48    87    88    1
    49    87    86    1
    50    20    21    1
    51    26    27    2
    52    88    89    2
    53    29    30    1
    54    48    47    2
    55    30    37   am
    56    49    50    1
    57    49    46    1
    58    50    51    1
    59    45    46    1
    60    45    39   am
    61    37    38    1
    62    73    72    1
    63    43    42    1
    64    47    46    1
    65    38    39    1
    66    38    41    1
    67    71    70    2
    68    39    40    2
    69    51    52    1
    70    52    53    2
    71    41    42    1
    72    42    44    1
    73    72    74    1
    74    72    69    1
    75    70    69    1
    76    70    75   am
    77    78    77    2
    78    76    79    1
    79    76    77    1
    80    76    75    1
    81    79    80    1
    82    53    55    1
    83    53    54    1
    84    69    68    1
    85   103   104    1
    86   103   102    1
    87   104    98    1
    88   102    99    1
    89   112   111    2
    90   124   121    1
    91   124   125    1
    92   122   121    1
    93   122   123    2
    94   126   125    1
    95   126   127    1
    96    80    81   ar
    97    80    82   ar
    98   120   121    1
    99   128   127    1
   100   111   110    1
   101    81    83   ar
   102    98    99    1
   103    99   100    1
   104    82    84   ar
   105    66    65    2
   106   110   109    1
   107    67    64    1
   108    83    85   ar
   109   154   153    1
   110    62    60    1
   111   100   105   am
   112   100   101    2
   113    84    85   ar
   114    64    65    1
   115    64    63    1
   116   105   106    1
   117    60    61    1
   118    60    57    1
   119   153   150    1
   120   142   141    1
   121   140   139    2
   122   106   107    1
   123   141   138    1
   124   107   108    2
   125   150   149    1
   126   150   151    1
   127   149   145   am
   128    57    56    1
   129    57    58    1
   130   148   147    1
   131   139   138    1
   132   139   143   am
   133   168   166    1
   134    58    59    2
   135   144   145    1
   136   144   143    1
   137   144   147    1
   138   167   166    1
   139   145   146    2
   140   138   137    1
   141   166   163    1
   142   151   152    2
   143   137   131   am
   144   177   178   ar
   145   177   175   ar
   146   161   159    1
   147   160   159    1
   148   178   176   ar
   149   175   174   ar
   150   163   164    1
   151   163   162    1
   152   136   134    1
   153   159   156    1
   154   131   130    1
   155   131   132    2
   156   130   129    1
   157   130   133    1
   158   164   165    2
   159   164   169   am
   160   176   174   ar
   161   174   173    1
   162   169   170    1
   163   134   133    1
   164   134   135    1
   165   156   155    1
   166   156   157    1
   167   170   173    1
   168   170   171    1
   169   157   158    2
   170   171   172    2
