@<TRIPOS>MOLECULE
tmp/3d57B00.pdb
 207 195 0 0 0
SMALL
GASTEIGER

@<TRIPOS>ATOM
      1  N         12.4460  -25.5780   24.4600 N.3    23  ASN23      -0.1225
      2  CA        13.2200  -24.6410   25.2540 C.3    23  ASN23       0.1785
      3  C         12.2090  -23.6230   25.7560 C.2    23  ASN23       0.2597
      4  O         11.6730  -22.8300   24.9830 O.2    23  ASN23      -0.2718
      5  CB        14.2830  -23.9550   24.3980 C.3    23  ASN23       0.1169
      6  CG        15.3980  -23.3590   25.2300 C.2    23  ASN23       0.2627
      7  OD1       16.2360  -22.6200   24.7220 O.2    23  ASN23      -0.2716
      8  ND2       15.4180  -23.6880   26.5210 N.am   23  ASN23      -0.0877
      9  N         11.9370  -23.6680   27.0520 N.am   24  ALA24      -0.1979
     10  CA        10.9600  -22.7810   27.6640 C.3    24  ALA24       0.1597
     11  C         11.3410  -21.3040   27.6190 C.2    24  ALA24       0.2287
     12  O         10.5640  -20.4510   28.0490 O.2    24  ALA24      -0.2864
     13  CB        10.7090  -23.2140   29.1050 C.3    24  ALA24       0.0319
     14  N         15.6140  -25.9090   48.4470 N.3    57  PHE57      -0.1241
     15  CA        15.3980  -27.1520   47.7080 C.3    57  PHE57       0.1605
     16  C         13.9590  -27.1990   47.1920 C.2    57  PHE57       0.2264
     17  O         13.6950  -27.5650   46.0430 O.2    57  PHE57      -0.2867
     18  CB        15.6500  -28.3400   48.6370 C.3    57  PHE57       0.0534
     19  CG        15.5880  -29.6790   47.9550 C.ar   57  PHE57      -0.0203
     20  CD1       16.6410  -30.1210   47.1590 C.ar   57  PHE57      -0.0042
     21  CD2       14.4770  -30.5030   48.1150 C.ar   57  PHE57      -0.0042
     22  CE1       16.5880  -31.3650   46.5350 C.ar   57  PHE57      -0.0003
     23  CE2       14.4170  -31.7450   47.4950 C.ar   57  PHE57      -0.0003
     24  CZ        15.4740  -32.1780   46.7030 C.ar   57  PHE57      -0.0000
     25  N         13.3060  -25.2860   43.9670 N.3    60  PHE60      -0.1227
     26  CA        13.9250  -25.9140   42.8110 C.3    60  PHE60       0.1736
     27  C         13.1480  -27.1310   42.3180 C.2    60  PHE60       0.2596
     28  O         12.9260  -27.2810   41.1150 O.2    60  PHE60      -0.2718
     29  CB        15.3590  -26.3230   43.1470 C.3    60  PHE60       0.0547
     30  CG        16.2750  -25.1610   43.4040 C.ar   60  PHE60      -0.0202
     31  CD1       17.0570  -25.1170   44.5530 C.ar   60  PHE60      -0.0042
     32  CD2       16.3520  -24.1060   42.5000 C.ar   60  PHE60      -0.0042
     33  CE1       17.8960  -24.0380   44.8010 C.ar   60  PHE60      -0.0003
     34  CE2       17.1910  -23.0230   42.7390 C.ar   60  PHE60      -0.0003
     35  CZ        17.9630  -22.9880   43.8900 C.ar   60  PHE60      -0.0000
     36  N         12.7380  -27.9990   43.2390 N.am   61  THR61      -0.1953
     37  CA        12.0040  -29.2040   42.8630 C.3    61  THR61       0.1897
     38  C         10.6060  -28.9180   42.3320 C.2    61  THR61       0.2313
     39  O         10.0500  -29.7210   41.5760 O.2    61  THR61      -0.2863
     40  CB        11.8810  -30.1940   44.0460 C.3    61  THR61       0.1794
     41  OG1       11.2120  -29.5600   45.1390 O.3    61  THR61      -0.2208
     42  CG2       13.2600  -30.6580   44.4930 C.3    61  THR61       0.0378
     43  N          9.7520  -26.8680   40.1460 N.3    63  ILE63      -0.1231
     44  CA         9.7760  -26.5530   38.7200 C.3    63  ILE63       0.1692
     45  C         10.7810  -27.4340   37.9910 C.2    63  ILE63       0.2591
     46  O         11.1950  -27.1080   36.8810 O.2    63  ILE63      -0.2718
     47  CB        10.1680  -25.0790   38.4440 C.3    63  ILE63       0.0266
     48  CG1       11.5330  -24.7810   39.0590 C.3    63  ILE63       0.0019
     49  CG2        9.1010  -24.1330   38.9800 C.3    63  ILE63       0.0020
     50  CD1       12.0690  -23.4100   38.6990 C.3    63  ILE63       0.0001
     51  N         11.1730  -28.5510   38.6050 N.am   64  ILE64      -0.1980
     52  CA        12.1510  -29.4450   37.9790 C.3    64  ILE64       0.1595
     53  C         11.5580  -30.5000   37.0340 C.2    64  ILE64       0.2287
     54  O         12.2200  -30.9360   36.0920 O.2    64  ILE64      -0.2864
     55  CB        13.0230  -30.1530   39.0390 C.3    64  ILE64       0.0276
     56  CG1       14.3190  -30.6390   38.3850 C.3    64  ILE64       0.0022
     57  CG2       12.2640  -31.3260   39.6580 C.3    64  ILE64       0.0022
     58  CD1       15.3760  -31.0610   39.3670 C.3    64  ILE64       0.0001
     59  N         11.3840  -29.3720   33.4420 N.3    67  ALA67      -0.1245
     60  CA        12.7210  -29.3420   32.8500 C.3    67  ALA67       0.1562
     61  C         13.1340  -30.7410   32.4000 C.2    67  ALA67       0.2260
     62  O         13.7000  -30.9140   31.3150 O.2    67  ALA67      -0.2867
     63  CB        13.7430  -28.7900   33.8580 C.3    67  ALA67       0.0290
     64  N         20.7000  -34.3130   33.3390 N.3    98  MET98      -0.1245
     65  CA        21.2670  -33.1630   34.0290 C.3    98  MET98       0.1570
     66  C         22.3420  -32.4440   33.2070 C.2    98  MET98       0.2261
     67  O         22.5550  -31.2430   33.3730 O.2    98  MET98      -0.2867
     68  CB        21.8250  -33.5760   35.3990 C.3    98  MET98       0.0387
     69  CG        20.7830  -34.1660   36.3560 C.3    98  MET98       0.0595
     70  SD        19.3370  -33.0880   36.6980 S.3    98  MET98      -0.1393
     71  CE        18.0670  -34.3200   37.1550 C.3    98  MET98       0.0692
     72  N         20.2150  -30.2170   31.0120 N.3   101  MET101     -0.1230
     73  CA        19.5960  -29.1760   31.8200 C.3   101  MET101      0.1702
     74  C         20.6430  -28.1530   32.2430 C.2   101  MET101      0.2593
     75  O         20.4190  -26.9490   32.1560 O.2   101  MET101     -0.2718
     76  CB        18.9260  -29.7660   33.0660 C.3   101  MET101      0.0401
     77  CG        17.5780  -30.4450   32.8150 C.3   101  MET101      0.0596
     78  SD        16.7840  -30.9250   34.3760 S.3   101  MET101     -0.1393
     79  CE        17.2330  -32.5190   34.5020 C.3   101  MET101      0.0692
     80  N         21.7980  -28.6440   32.6800 N.am  102  SER102     -0.1952
     81  CA        22.8700  -27.7700   33.1280 C.3   102  SER102      0.1924
     82  C         23.3310  -26.8380   32.0420 C.2   102  SER102      0.2314
     83  O         23.6130  -25.6680   32.3050 O.2   102  SER102     -0.2863
     84  CB        24.0340  -28.5980   33.6590 C.3   102  SER102      0.2116
     85  OG        23.6390  -29.2180   34.8740 O.3   102  SER102     -0.2180
     86  N         21.4790  -25.8470   29.5110 N.3   104  ARG104     -0.1231
     87  CA        20.3910  -24.8910   29.3430 C.3   104  ARG104      0.1694
     88  C         20.3920  -23.7260   30.3270 C.2   104  ARG104      0.2591
     89  O         20.1080  -22.5930   29.9420 O.2   104  ARG104     -0.2718
     90  CB        19.0450  -25.6150   29.3930 C.3   104  ARG104      0.0321
     91  CG        18.8080  -26.4720   28.1650 C.3   104  ARG104      0.0489
     92  CD        17.4150  -27.0750   28.1090 C.3   104  ARG104      0.2205
     93  NE        17.0690  -27.3770   26.7280 N.pl3 104  ARG104     -0.0865
     94  CZ        15.9190  -27.9030   26.3220 C.cat 104  ARG104      0.5346
     95  NH1       15.7250  -28.1220   25.0280 N.pl3 104  ARG104      0.1354
     96  NH2       14.9770  -28.2210   27.1970 N.pl3 104  ARG104      0.1354
     97  N         20.7070  -23.9950   31.5910 N.am  105  ALA105     -0.1980
     98  CA        20.7450  -22.9330   32.5920 C.3   105  ALA105      0.1597
     99  C         22.0120  -22.1080   32.4100 C.2   105  ALA105      0.2287
    100  O         21.9840  -20.8790   32.4920 O.2   105  ALA105     -0.2864
    101  CB        20.7040  -23.5240   33.9870 C.3   105  ALA105      0.0319
    102  N         21.9600  -19.3640   30.0330 N.3   108  ARG108     -0.1245
    103  CA        21.1020  -18.2650   30.4560 C.3   108  ARG108      0.1563
    104  C         21.7390  -17.5470   31.6380 C.2   108  ARG108      0.2260
    105  O         21.0620  -17.0370   32.5310 O.2   108  ARG108     -0.2867
    106  CB        19.7060  -18.7690   30.8110 C.3   108  ARG108      0.0307
    107  CG        18.8920  -19.1000   29.5710 C.3   108  ARG108      0.0489
    108  CD        17.4130  -19.2600   29.8780 C.3   108  ARG108      0.2205
    109  NE        17.1070  -20.5620   30.4550 N.pl3 108  ARG108     -0.0865
    110  CZ        16.3080  -21.4560   29.8910 C.cat 108  ARG108      0.5346
    111  NH1       16.0880  -22.6130   30.4840 N.pl3 108  ARG108      0.1354
    112  NH2       15.7240  -21.1940   28.7340 N.pl3 108  ARG108      0.1354
    113  N         19.0530  -18.2720   35.0100 N.3   117  THR117     -0.1203
    114  CA        17.5980  -18.2740   35.0010 C.3   117  THR117      0.1994
    115  C         17.1380  -19.6900   34.6760 C.2   117  THR117      0.2618
    116  O         17.2270  -20.1470   33.5390 O.2   117  THR117     -0.2717
    117  CB        17.0350  -17.2630   33.9640 C.3   117  THR117      0.1784
    118  OG1       17.4830  -15.9440   34.2980 O.3   117  THR117     -0.2211
    119  CG2       15.5130  -17.2680   33.9720 C.3   117  THR117      0.0376
    120  N         16.6730  -20.3950   35.7000 N.am  118  LEU118     -0.1965
    121  CA        16.2120  -21.7600   35.5390 C.3   118  LEU118      0.1728
    122  C         14.8660  -21.7990   34.8120 C.2   118  LEU118      0.2616
    123  O         13.9310  -21.0670   35.1720 O.2   118  LEU118     -0.2715
    124  CB        16.1040  -22.4220   36.9160 C.3   118  LEU118      0.0311
    125  CG        17.3450  -22.2210   37.7930 C.3   118  LEU118      0.0022
    126  CD1       17.1420  -22.8950   39.1390 C.3   118  LEU118      0.0001
    127  CD2       18.5780  -22.7850   37.0980 C.3   118  LEU118      0.0001
    128  N         14.7760  -22.6620   33.8000 N.am  119  ASN119     -0.1972
    129  CA        13.5620  -22.8200   32.9980 C.3   119  ASN119      0.1688
    130  C         13.1710  -21.5250   32.3100 C.2   119  ASN119      0.2292
    131  O         12.0040  -21.3290   31.9750 O.2   119  ASN119     -0.2864
    132  CB        12.3860  -23.2830   33.8620 C.3   119  ASN119      0.1181
    133  CG        12.5320  -24.7130   34.3130 C.2   119  ASN119      0.2629
    134  OD1       13.3530  -25.4540   33.7770 O.2   119  ASN119     -0.2716
    135  ND2       11.7260  -25.1170   35.2870 N.am  119  ASN119     -0.0877
    136  N         21.5970  -21.5480   44.5150 N.3   129  LEU129     -0.1245
    137  CA        21.6770  -22.8270   43.8190 C.3   129  LEU129      0.1561
    138  C         22.5560  -23.8200   44.5830 C.2   129  LEU129      0.2260
    139  O         22.3280  -25.0290   44.5360 O.2   129  LEU129     -0.2867
    140  CB        22.2360  -22.6320   42.3960 C.3   129  LEU129      0.0270
    141  CG        22.1930  -23.9130   41.5650 C.3   129  LEU129      0.0019
    142  CD1       20.7320  -24.2850   41.3470 C.3   129  LEU129      0.0001
    143  CD2       22.9160  -23.7350   40.2210 C.3   129  LEU129      0.0001
    144  N         20.7130  -24.7590   47.8410 N.3   132  GLY132     -0.1210
    145  CA        19.4930  -25.4470   47.4680 C.3   132  GLY132      0.1956
    146  C         19.7150  -26.9320   47.2250 C.2   132  GLY132      0.2612
    147  O         18.7500  -27.7010   47.1540 O.2   132  GLY132     -0.2717
    148  N         20.9760  -27.3390   47.0810 N.am  133  GLY133     -0.1942
    149  CA        21.2600  -28.7470   46.8760 C.3   133  GLY133      0.2014
    150  C         22.4390  -29.1410   46.0080 C.2   133  GLY133      0.2638
    151  O         23.0750  -30.1550   46.2760 O.2   133  GLY133     -0.2714
    152  N         22.7450  -28.3630   44.9740 N.am  134  LEU134     -0.1977
    153  CA        23.8460  -28.7130   44.0820 C.3   134  LEU134      0.1596
    154  C         25.2500  -28.5540   44.6570 C.2   134  LEU134      0.2287
    155  O         26.2300  -28.9810   44.0330 O.2   134  LEU134     -0.2864
    156  CB        23.7400  -27.9120   42.7800 C.3   134  LEU134      0.0297
    157  CG        22.4390  -28.1550   42.0100 C.3   134  LEU134      0.0022
    158  CD1       22.4960  -27.4670   40.6530 C.3   134  LEU134      0.0001
    159  CD2       22.2370  -29.6550   41.8460 C.3   134  LEU134      0.0001
    160  N         28.4530  -25.1090   37.3790 N.3   141  ILE141     -0.1245
    161  CA        27.5340  -24.6270   36.3510 C.3   141  ILE141      0.1561
    162  C         27.7090  -23.1410   36.0790 C.2   141  ILE141      0.2260
    163  O         27.6300  -22.6960   34.9210 O.2   141  ILE141     -0.2867
    164  CB        26.0740  -24.9450   36.7230 C.3   141  ILE141      0.0252
    165  CG1       25.9350  -26.4570   36.9460 C.3   141  ILE141      0.0019
    166  CG2       25.1250  -24.5090   35.5960 C.3   141  ILE141      0.0019
    167  CD1       24.5870  -26.8890   37.5110 C.3   141  ILE141      0.0001
    168  N         26.3080  -34.4730   39.8630 N.3   223  HIS223     -0.1241
    169  CA        24.8780  -34.3440   40.1470 C.3   223  HIS223      0.1621
    170  C         24.4350  -35.6030   40.8690 C.2   223  HIS223      0.2264
    171  O         23.7590  -35.5450   41.8990 O.2   223  HIS223     -0.2867
    172  CB        24.0850  -34.2250   38.8400 C.3   223  HIS223      0.0745
    173  CG        23.4770  -32.8770   38.6110 C.ar  223  HIS223      0.0817
    174  ND1       22.3870  -32.4250   39.3230 N.ar  223  HIS223     -0.2268
    175  CD2       23.7890  -31.8920   37.7320 C.ar  223  HIS223      0.1154
    176  CE1       22.0520  -31.2210   38.8890 C.ar  223  HIS223      0.1986
    177  NE2       22.8860  -30.8750   37.9250 N.ar  223  HIS223     -0.2212
    178  N         21.1800  -35.6630   48.8980 N.3   230  MET230     -0.1245
    179  CA        19.8110  -35.1610   48.9590 C.3   230  MET230      0.1570
    180  C         18.8770  -36.1990   49.5670 C.2   230  MET230      0.2261
    181  O         18.0070  -35.8630   50.3640 O.2   230  MET230     -0.2867
    182  CB        19.3120  -34.7810   47.5590 C.3   230  MET230      0.0387
    183  CG        20.1980  -33.7820   46.8330 C.3   230  MET230      0.0595
    184  SD        19.6760  -33.4710   45.1320 S.3   230  MET230     -0.1393
    185  CE        19.7930  -31.6960   45.0630 C.3   230  MET230      0.0692
    186  N         11.9010  -36.7930   39.0590 N.3   243  PHE243     -0.1241
    187  CA        13.1930  -36.4400   39.6050 C.3   243  PHE243      0.1605
    188  C         13.9020  -37.6630   40.1770 C.2   243  PHE243      0.2264
    189  O         15.0910  -37.8700   39.9330 O.2   243  PHE243     -0.2867
    190  CB        13.0210  -35.3580   40.6680 C.3   243  PHE243      0.0534
    191  CG        14.3080  -34.8330   41.2000 C.ar  243  PHE243     -0.0203
    192  CD1       15.3600  -34.5440   40.3410 C.ar  243  PHE243     -0.0042
    193  CD2       14.4640  -34.5980   42.5600 C.ar  243  PHE243     -0.0042
    194  CE1       16.5550  -34.0240   40.8310 C.ar  243  PHE243     -0.0003
    195  CE2       15.6530  -34.0800   43.0620 C.ar  243  PHE243     -0.0003
    196  CZ        16.7020  -33.7900   42.1940 C.ar  243  PHE243     -0.0000
    197  N         17.8130  -40.7270   38.5550 N.3   247  PHE247     -0.1241
    198  CA        19.0510  -41.2970   39.0900 C.3   247  PHE247      0.1605
    199  C         18.9370  -42.7810   39.4600 C.2   247  PHE247      0.2264
    200  O         19.8960  -43.3940   39.9340 O.2   247  PHE247     -0.2867
    201  CB        19.5080  -40.4890   40.3110 C.3   247  PHE247      0.0534
    202  CG        19.6690  -39.0190   40.0330 C.ar  247  PHE247     -0.0203
    203  CD1       18.5570  -38.1820   39.9780 C.ar  247  PHE247     -0.0042
    204  CD2       20.9290  -38.4790   39.7870 C.ar  247  PHE247     -0.0042
    205  CE1       18.6970  -36.8250   39.6800 C.ar  247  PHE247     -0.0003
    206  CE2       21.0810  -37.1210   39.4860 C.ar  247  PHE247     -0.0003
    207  CZ        19.9640  -36.2930   39.4330 C.ar  247  PHE247     -0.0000
@<TRIPOS>BOND
     1     5     6    1
     2     5     2    1
     3     1     2    1
     4     7     6    2
     5     4     3    2
     6    95    94    1
     7     6     8   am
     8     2     3    1
     9     3     9   am
    10    94    93    2
    11    94    96    1
    12    93    92    1
    13     9    10    1
    14    11    10    1
    15    11    12    2
    16    10    13    1
    17    92    91    1
    18    91    90    1
    19   112   110    1
    20    87    90    1
    21    87    86    1
    22    87    88    1
    23   107   108    1
    24   107   106    1
    25   108   109    1
    26   110   109    2
    27   110   111    1
    28    89    88    2
    29   102   103    1
    30    88    97   am
    31   103   106    1
    32   103   104    1
    33    72    73    1
    34    62    61    2
    35    97    98    1
    36   104   105    2
    37    73    74    1
    38    73    76    1
    39   131   130    2
    40    82    83    2
    41    82    81    1
    42    75    74    2
    43    74    80   am
    44   130   129    1
    45    61    60    1
    46    99   100    2
    47    99    98    1
    48    98   101    1
    49    80    81    1
    50    77    76    1
    51    77    78    1
    52    60    59    1
    53    60    63    1
    54   129   128    1
    55   129   132    1
    56    81    84    1
    57    66    67    2
    58    66    65    1
    59    64    65    1
    60   116   115    2
    61    84    85    1
    62   134   133    2
    63   128   122   am
    64   132   133    1
    65   117   119    1
    66   117   118    1
    67   117   114    1
    68    65    68    1
    69   133   135   am
    70    78    79    1
    71   115   114    1
    72   115   120   am
    73   122   123    2
    74   122   121    1
    75   163   162    2
    76   114   113    1
    77    68    69    1
    78   121   120    1
    79   121   124    1
    80   166   164    1
    81   162   161    1
    82    54    53    2
    83   161   164    1
    84   161   160    1
    85    69    70    1
    86    70    71    1
    87   164   165    1
    88    46    45    2
    89   124   125    1
    90   165   167    1
    91    53    52    1
    92   127   125    1
    93   175   177   ar
    94   175   173   ar
    95   125   126    1
    96   177   176   ar
    97    52    51    1
    98    52    55    1
    99    45    51   am
   100    45    44    1
   101    56    55    1
   102    56    58    1
   103    47    44    1
   104    47    49    1
   105    47    48    1
   106   197   198    1
   107   173   172    1
   108   173   174   ar
   109    50    48    1
   110    44    43    1
   111   172   169    1
   112   176   174   ar
   113    55    57    1
   114   186   187    1
   115   198   199    1
   116   198   201    1
   117   207   206   ar
   118   207   205   ar
   119   199   200    2
   120   206   204   ar
   121   187   188    1
   122   187   190    1
   123   205   203   ar
   124   204   202   ar
   125   168   169    1
   126   189   188    2
   127   203   202   ar
   128   202   201    1
   129   169   170    1
   130   143   141    1
   131   192   194   ar
   132   192   191   ar
   133   158   157    1
   134   190   191    1
   135   194   196   ar
   136   170   171    2
   137    28    27    2
   138   191   193   ar
   139   142   141    1
   140   141   140    1
   141    39    38    2
   142   159   157    1
   143   157   156    1
   144   196   195   ar
   145    27    26    1
   146    27    36   am
   147    38    37    1
   148   140   137    1
   149    32    34   ar
   150    32    30   ar
   151   193   195   ar
   152    34    35   ar
   153   156   153    1
   154    26    29    1
   155    26    25    1
   156    37    36    1
   157    37    40    1
   158    29    30    1
   159    30    31   ar
   160   137   136    1
   161   137   138    1
   162    35    33   ar
   163   155   154    2
   164    40    42    1
   165    40    41    1
   166   153   154    1
   167   153   152    1
   168   139   138    2
   169    31    33   ar
   170   152   150   am
   171   185   184    1
   172   184   183    1
   173   150   151    2
   174   150   149    1
   175    17    16    2
   176    22    24   ar
   177    22    20   ar
   178    24    23   ar
   179   183   182    1
   180   149   148    1
   181   148   146   am
   182   147   146    2
   183    20    19   ar
   184    16    15    1
   185   146   145    1
   186   145   144    1
   187    23    21   ar
   188   182   179    1
   189    15    14    1
   190    15    18    1
   191    19    21   ar
   192    19    18    1
   193   178   179    1
   194   179   180    1
   195   180   181    2
