@<TRIPOS>MOLECULE
tmp/3d5eB00.pdb
 111 111 0 0 0
SMALL
GASTEIGER

@<TRIPOS>ATOM
      1  N        -83.6640  -15.6050  -42.3250 N.3    57  PHE57      -0.1241
      2  CA       -83.7140  -15.5540  -40.8700 C.3    57  PHE57       0.1605
      3  C        -85.1550  -15.7090  -40.4100 C.2    57  PHE57       0.2264
      4  O        -85.4150  -16.4500  -39.4900 O.2    57  PHE57      -0.2867
      5  CB       -83.0490  -14.2740  -40.3180 C.3    57  PHE57       0.0534
      6  CG       -83.1720  -14.1120  -38.8070 C.ar   57  PHE57      -0.0203
      7  CD1      -82.5460  -15.0010  -37.9420 C.ar   57  PHE57      -0.0042
      8  CD2      -83.8820  -13.0630  -38.2690 C.ar   57  PHE57      -0.0042
      9  CE1      -82.6480  -14.8480  -36.5490 C.ar   57  PHE57      -0.0003
     10  CE2      -83.9910  -12.9030  -36.8740 C.ar   57  PHE57      -0.0003
     11  CZ       -83.3750  -13.7960  -36.0220 C.ar   57  PHE57      -0.0000
     12  N        -77.5370   -8.0670  -32.8030 N.3    99  GLY99      -0.1210
     13  CA       -78.0180   -9.3450  -32.3740 C.3    99  GLY99       0.1956
     14  C        -78.0370  -10.3530  -33.5270 C.2    99  GLY99       0.2611
     15  O        -77.5990  -10.0570  -34.6540 O.2    99  GLY99      -0.2717
     16  N        -78.5070  -11.5580  -33.2340 N.am  100  LEU100     -0.1979
     17  CA       -78.5350  -12.6570  -34.1950 C.3   100  LEU100      0.1596
     18  C        -79.5460  -12.3270  -35.2960 C.2   100  LEU100      0.2287
     19  O        -80.6210  -11.8390  -35.0090 O.2   100  LEU100     -0.2864
     20  CB       -78.8910  -13.9750  -33.4710 C.3   100  LEU100      0.0297
     21  CG       -79.1200  -15.2820  -34.2760 C.3   100  LEU100      0.0022
     22  CD1      -77.8580  -15.8060  -34.9070 C.3   100  LEU100      0.0001
     23  CD2      -79.8170  -16.3940  -33.4270 C.3   100  LEU100      0.0001
     24  N        -79.3460   -9.9060  -37.3480 N.3   102  ALA102     -0.1245
     25  CA       -79.3180   -8.4660  -37.6780 C.3   102  ALA102      0.1562
     26  C        -78.1020   -8.1590  -38.4710 C.2   102  ALA102      0.2260
     27  O        -77.4720   -9.1070  -38.9460 O.2   102  ALA102     -0.2867
     28  CB       -79.4000   -7.6120  -36.4360 C.3   102  ALA102      0.0290
     29  N        -79.5240   -0.5640  -36.0120 N.3   107  TYR107     -0.1241
     30  CA       -79.5950    0.0740  -34.6430 C.3   107  TYR107      0.1605
     31  C        -79.2350    1.5740  -34.7630 C.2   107  TYR107      0.2264
     32  O        -78.6040    2.2040  -33.8780 O.2   107  TYR107     -0.2867
     33  CB       -78.6140   -0.6190  -33.7150 C.3   107  TYR107      0.0534
     34  CG       -78.9890   -2.0550  -33.4210 C.ar  107  TYR107     -0.0201
     35  CD1      -79.8690   -2.3770  -32.3780 C.ar  107  TYR107     -0.0009
     36  CD2      -78.5120   -3.0920  -34.2410 C.ar  107  TYR107     -0.0009
     37  CE1      -80.1940   -3.7390  -32.1100 C.ar  107  TYR107      0.0417
     38  CE2      -78.8480   -4.4140  -34.0030 C.ar  107  TYR107      0.0417
     39  CZ       -79.6680   -4.7530  -32.9460 C.ar  107  TYR107      0.1957
     40  OH       -79.9790   -6.1190  -32.7570 O.3   107  TYR107     -0.2866
     41  N        -76.9510   -5.4980  -28.3750 N.3   219  HIS219     -0.1226
     42  CA       -78.2920   -6.0280  -28.1590 C.3   219  HIS219      0.1752
     43  C        -78.3110   -7.5520  -28.3120 C.2   219  HIS219      0.2597
     44  O        -77.8600   -8.0240  -29.3280 O.2   219  HIS219     -0.2718
     45  CB       -79.2090   -5.4320  -29.2330 C.3   219  HIS219      0.0759
     46  CG       -80.6270   -5.9450  -29.1860 C.ar  219  HIS219      0.0818
     47  ND1      -81.2950   -6.4040  -30.3080 N.ar  219  HIS219     -0.2268
     48  CD2      -81.4970   -6.0510  -28.1590 C.ar  219  HIS219      0.1154
     49  CE1      -82.5270   -6.7400  -29.9760 C.ar  219  HIS219      0.1986
     50  NE2      -82.6710   -6.5570  -28.6680 N.ar  219  HIS219     -0.2212
     51  N        -78.8520   -8.2960  -27.3430 N.am  220  SER220     -0.1938
     52  CA       -79.1070   -9.7530  -27.4430 C.3   220  SER220      0.2055
     53  C        -77.8340  -10.6360  -27.6710 C.2   220  SER220      0.2643
     54  O        -77.0350  -10.7140  -26.6540 O.2   220  SER220     -0.2714
     55  CB       -80.2860  -10.0100  -28.4150 C.3   220  SER220      0.2130
     56  OG       -80.6720  -11.3840  -28.4800 O.3   220  SER220     -0.2179
     57  N        -77.5450  -11.1970  -28.8400 N.am  221  PHE221     -0.1973
     58  CA       -76.2430  -11.8000  -29.0520 C.3   221  PHE221      0.1639
     59  C        -75.1920  -10.7190  -28.7930 C.2   221  PHE221      0.2290
     60  O        -74.1510  -11.0110  -28.2680 O.2   221  PHE221     -0.2864
     61  CB       -76.1130  -12.3330  -30.5240 C.3   221  PHE221      0.0560
     62  CG       -75.2040  -13.5510  -30.6880 C.ar  221  PHE221     -0.0200
     63  CD1      -75.3660  -14.4250  -31.8020 C.ar  221  PHE221     -0.0042
     64  CD2      -74.2020  -13.8430  -29.7580 C.ar  221  PHE221     -0.0042
     65  CE1      -74.5390  -15.5390  -31.9420 C.ar  221  PHE221     -0.0003
     66  CE2      -73.3730  -14.9470  -29.8910 C.ar  221  PHE221     -0.0003
     67  CZ       -73.5140  -15.7750  -30.9680 C.ar  221  PHE221     -0.0000
     68  N        -78.6400  -11.9590  -24.4430 N.3   245  TRP245     -0.1241
     69  CA       -78.9120  -13.3920  -24.5210 C.3   245  TRP245      0.1605
     70  C        -77.5930  -14.0670  -24.0530 C.2   245  TRP245      0.2264
     71  O        -76.5740  -13.9540  -24.7190 O.2   245  TRP245     -0.2867
     72  CB       -79.2550  -13.7600  -25.9720 C.3   245  TRP245      0.0550
     73  CG       -79.3670  -15.2540  -26.2140 C.ar  245  TRP245      0.0003
     74  CD1      -80.0580  -16.1840  -25.4370 C.ar  245  TRP245      0.0946
     75  CD2      -78.7790  -15.9890  -27.2970 C.ar  245  TRP245      0.0152
     76  NE1      -79.9260  -17.4440  -25.9990 N.ar  245  TRP245     -0.2442
     77  CE2      -79.1730  -17.3540  -27.1440 C.ar  245  TRP245      0.0810
     78  CE3      -77.9960  -15.6300  -28.4050 C.ar  245  TRP245      0.0012
     79  CZ2      -78.7800  -18.3620  -28.0500 C.ar  245  TRP245      0.0191
     80  CZ3      -77.6190  -16.6720  -29.3340 C.ar  245  TRP245      0.0001
     81  CH2      -78.0010  -17.9980  -29.1130 C.ar  245  TRP245      0.0015
     82  N        -89.0630  -10.1890  -22.9920 N.3   269  PHE269     -0.1241
     83  CA       -88.0660  -11.1480  -23.4730 C.3   269  PHE269      0.1605
     84  C        -87.4850  -12.0150  -22.3760 C.2   269  PHE269      0.2264
     85  O        -87.2040  -13.1690  -22.6240 O.2   269  PHE269     -0.2867
     86  CB       -86.9110  -10.4060  -24.1640 C.3   269  PHE269      0.0534
     87  CG       -85.7940  -11.2840  -24.6240 C.ar  269  PHE269     -0.0203
     88  CD1      -85.9630  -12.1050  -25.7630 C.ar  269  PHE269     -0.0042
     89  CD2      -84.5620  -11.2890  -23.9550 C.ar  269  PHE269     -0.0042
     90  CE1      -84.9630  -12.8990  -26.2100 C.ar  269  PHE269     -0.0003
     91  CE2      -83.5240  -12.0780  -24.4170 C.ar  269  PHE269     -0.0003
     92  CZ       -83.6980  -12.8740  -25.5320 C.ar  269  PHE269     -0.0000
     93  N        -88.3750   -7.4870  -26.9990 N.3   298  HIS298     -0.1226
     94  CA       -87.0130   -7.5720  -27.5040 C.3   298  HIS298      0.1752
     95  C        -86.6580   -6.5350  -28.5520 C.2   298  HIS298      0.2595
     96  O        -85.6200   -5.8870  -28.4900 O.2   298  HIS298     -0.2718
     97  CB       -86.7960   -8.9820  -28.0720 C.3   298  HIS298      0.0759
     98  CG       -85.3660   -9.3800  -28.1040 C.ar  298  HIS298      0.0818
     99  ND1      -84.5240   -9.1410  -27.0340 N.ar  298  HIS298     -0.2268
    100  CD2      -84.6400  -10.0820  -29.0190 C.ar  298  HIS298      0.1154
    101  CE1      -83.3320   -9.6300  -27.3090 C.ar  298  HIS298      0.1986
    102  NE2      -83.3790  -10.2210  -28.4980 N.ar  298  HIS298     -0.2212
    103  N        -87.5160   -6.4200  -29.5540 N.am  299  GLN299     -0.1979
    104  CA       -87.3250   -5.5450  -30.6940 C.3   299  GLN299      0.1601
    105  C        -87.4440   -4.0620  -30.3840 C.2   299  GLN299      0.2287
    106  O        -87.1420   -3.2580  -31.2580 O.2   299  GLN299     -0.2864
    107  CB       -88.3170   -5.9350  -31.8040 C.3   299  GLN299      0.0394
    108  CG       -88.0130   -7.2950  -32.4840 C.3   299  GLN299      0.0908
    109  CD       -86.6180   -7.3850  -33.0610 C.2   299  GLN299      0.2608
    110  OE1      -86.1780   -6.5280  -33.8330 O.2   299  GLN299     -0.2717
    111  NE2      -85.9020   -8.4420  -32.6830 N.am  299  GLN299     -0.0878
@<TRIPOS>BOND
     1     1     2    1
     2     2     3    1
     3     2     5    1
     4     3     4    2
     5     5     6    1
     6    27    26    2
     7     6     8   ar
     8     6     7   ar
     9    26    25    1
    10     8    10   ar
    11     7     9   ar
    12    25    24    1
    13    25    28    1
    14    10    11   ar
    15     9    11   ar
    16    29    30    1
    17    18    19    2
    18    18    17    1
    19    22    21    1
    20    31    30    1
    21    31    32    2
    22    15    14    2
    23    30    33    1
    24    21    20    1
    25    21    23    1
    26    36    38   ar
    27    36    34   ar
    28    17    20    1
    29    17    16    1
    30    38    39   ar
    31   110   109    2
    32    33    34    1
    33    14    16   am
    34    14    13    1
    35    34    35   ar
    36   109   111   am
    37   109   108    1
    38    39    40    1
    39    39    37   ar
    40    12    13    1
    41   108   107    1
    42    35    37   ar
    43    65    63   ar
    44    65    67   ar
    45   107   104    1
    46    63    62   ar
    47   106   105    2
    48    67    66   ar
    49   104   105    1
    50   104   103    1
    51    62    61    1
    52    62    64   ar
    53    61    58    1
    54    47    49   ar
    55    47    46   ar
    56    49    50   ar
    57    66    64   ar
    58   103    95   am
    59    80    81   ar
    60    80    78   ar
    61    44    43    2
    62    45    46    1
    63    45    42    1
    64    46    48   ar
    65    81    79   ar
    66    58    57    1
    67    58    59    1
    68   100   102   ar
    69   100    98   ar
    70    57    53   am
    71    59    60    2
    72    50    48   ar
    73    95    96    2
    74    95    94    1
    75   102   101   ar
    76    56    55    1
    77    55    52    1
    78    78    75   ar
    79    41    42    1
    80    43    42    1
    81    43    51   am
    82    98    97    1
    83    98    99   ar
    84    97    94    1
    85    79    77   ar
    86    53    52    1
    87    53    54    2
    88    94    93    1
    89    52    51    1
    90   101    99   ar
    91    75    77   ar
    92    75    73   ar
    93    77    76   ar
    94    73    72    1
    95    73    74   ar
    96    90    88   ar
    97    90    92   ar
    98    76    74   ar
    99    72    69    1
   100    88    87   ar
   101    92    91   ar
   102    71    70    2
   103    87    86    1
   104    87    89   ar
   105    69    68    1
   106    69    70    1
   107    91    89   ar
   108    86    83    1
   109    83    82    1
   110    83    84    1
   111    85    84    2
