@<TRIPOS>MOLECULE
tmp/3d5iB00.pdb
 130 126 0 0 0
SMALL
GASTEIGER

@<TRIPOS>ATOM
      1  N         51.4190  -23.5990   26.4450 N.3    34  ARG34      -0.1245
      2  CA        52.8040  -23.2940   26.8230 C.3    34  ARG34       0.1563
      3  C         53.7300  -22.8830   25.6720 C.2    34  ARG34       0.2260
      4  O         54.8800  -22.5290   25.9130 O.2    34  ARG34      -0.2867
      5  CB        53.4260  -24.4600   27.5940 C.3    34  ARG34       0.0307
      6  CG        52.9360  -24.5600   29.0630 C.3    34  ARG34       0.0489
      7  CD        53.9500  -25.3000   29.9440 C.3    34  ARG34       0.2205
      8  NE        55.1920  -24.5320   30.1500 N.pl3  34  ARG34      -0.0865
      9  CZ        55.7890  -24.3330   31.3330 C.cat  34  ARG34       0.5346
     10  NH1       55.2890  -24.8620   32.4650 N.pl3  34  ARG34       0.1354
     11  NH2       56.9180  -23.6220   31.3900 N.pl3  34  ARG34       0.1354
     12  N         58.5720  -18.0330   28.1580 N.3    38  VAL38      -0.1231
     13  CA        59.9860  -17.6790   28.2650 C.3    38  VAL38       0.1692
     14  C         60.8490  -18.9010   28.6310 C.2    38  VAL38       0.2592
     15  O         60.5120  -19.6660   29.5090 O.2    38  VAL38      -0.2718
     16  CB        60.2280  -16.5390   29.3230 C.3    38  VAL38       0.0266
     17  CG1       61.7110  -16.1560   29.3830 C.3    38  VAL38       0.0020
     18  CG2       59.4020  -15.3190   28.9820 C.3    38  VAL38       0.0020
     19  N         61.9430  -19.0790   27.8940 N.am   39  PHE39      -0.1962
     20  CA        62.9480  -20.0470   28.2050 C.3    39  PHE39       0.1771
     21  C         64.0470  -19.2930   28.9500 C.2    39  PHE39       0.2619
     22  O         64.6780  -18.3720   28.4010 O.2    39  PHE39      -0.2715
     23  CB        63.4770  -20.6890   26.9230 C.3    39  PHE39       0.0574
     24  CG        64.5550  -21.7030   27.1620 C.ar   39  PHE39      -0.0200
     25  CD1       65.8890  -21.3740   26.9500 C.ar   39  PHE39      -0.0042
     26  CD2       64.2390  -22.9710   27.6360 C.ar   39  PHE39      -0.0042
     27  CE1       66.8830  -22.2960   27.1830 C.ar   39  PHE39      -0.0003
     28  CE2       65.2260  -23.9060   27.8760 C.ar   39  PHE39      -0.0003
     29  CZ        66.5510  -23.5730   27.6500 C.ar   39  PHE39      -0.0000
     30  N         64.2590  -19.6730   30.2050 N.am   40  GLU40      -0.1963
     31  CA        65.1100  -18.9200   31.1060 C.3    40  GLU40       0.1733
     32  C         66.6020  -19.1230   30.8640 C.2    40  GLU40       0.2616
     33  O         67.4060  -18.3430   31.3800 O.2    40  GLU40      -0.2715
     34  CB        64.8660  -19.3600   32.5430 C.3    40  GLU40       0.0429
     35  CG        63.6150  -18.8980   33.2100 C.3    40  GLU40       0.1163
     36  CD        63.6060  -19.4240   34.6210 C.2    40  GLU40       0.3649
     37  OE1       62.8620  -20.3980   34.8980 O.co2  40  GLU40      -0.2457
     38  OE2       64.4170  -18.9270   35.4380 O.co2  40  GLU40      -0.2457
     39  N         66.9590  -20.2130   30.1720 N.am   41  ASN41      -0.1958
     40  CA        68.3520  -20.5780   29.8820 C.3    41  ASN41       0.1819
     41  C         69.1820  -20.7990   31.1570 C.2    41  ASN41       0.2621
     42  O         70.3400  -20.3730   31.2530 O.2    41  ASN41      -0.2715
     43  CB        68.9670  -19.5230   28.9410 C.3    41  ASN41       0.1195
     44  CG        70.3460  -19.9010   28.4360 C.2    41  ASN41       0.2630
     45  OD1       70.6090  -21.0450   28.0870 O.2    41  ASN41      -0.2716
     46  ND2       71.2250  -18.9180   28.3730 N.am   41  ASN41      -0.0877
     47  N         68.5750  -21.4980   32.1180 N.am   42  ARG42      -0.1963
     48  CA        69.1580  -21.7110   33.4420 C.3    42  ARG42       0.1729
     49  C         70.4990  -22.4390   33.3750 C.2    42  ARG42       0.2616
     50  O         71.4490  -22.0790   34.0590 O.2    42  ARG42      -0.2715
     51  CB        68.1960  -22.5120   34.3340 C.3    42  ARG42       0.0348
     52  CG        66.9230  -21.7730   34.7460 C.3    42  ARG42       0.0492
     53  CD        66.0700  -22.6070   35.7290 C.3    42  ARG42       0.2205
     54  NE        64.8280  -23.1350   35.1290 N.pl3  42  ARG42      -0.0865
     55  CZ        64.5650  -24.4200   34.8370 C.cat  42  ARG42       0.5346
     56  NH1       65.4500  -25.3960   35.0430 N.pl3  42  ARG42       0.1354
     57  NH2       63.3840  -24.7380   34.3110 N.pl3  42  ARG42       0.1354
     58  N         70.5580  -23.4530   32.5270 N.am   43  GLU43      -0.1977
     59  CA        71.7210  -24.3030   32.4170 C.3    43  GLU43       0.1602
     60  C         72.8670  -23.6880   31.5910 C.2    43  GLU43       0.2287
     61  O         73.9230  -24.3180   31.4560 O.2    43  GLU43      -0.2864
     62  CB        71.3120  -25.6570   31.8260 C.3    43  GLU43       0.0415
     63  CG        70.3550  -26.4830   32.7060 C.3    43  GLU43       0.1163
     64  CD        68.8770  -26.2060   32.4390 C.2    43  GLU43       0.3649
     65  OE1       68.5490  -25.5160   31.4580 O.co2  43  GLU43      -0.2457
     66  OE2       68.0370  -26.6780   33.2300 O.co2  43  GLU43      -0.2457
     67  N         73.2520  -23.3800   28.4940 N.3    45  ARG45      -0.1245
     68  CA        73.5080  -24.1440   27.2740 C.3    45  ARG45       0.1563
     69  C         73.4480  -23.2520   26.0300 C.2    45  ARG45       0.2260
     70  O         74.0820  -23.5540   25.0270 O.2    45  ARG45      -0.2867
     71  CB        72.5430  -25.3250   27.1850 C.3    45  ARG45       0.0307
     72  CG        72.6570  -26.2280   28.4060 C.3    45  ARG45       0.0489
     73  CD        72.0660  -27.5920   28.2180 C.3    45  ARG45       0.2205
     74  NE        72.2580  -28.3610   29.4400 N.pl3  45  ARG45      -0.0865
     75  CZ        71.3280  -29.0520   30.1010 C.cat  45  ARG45       0.5346
     76  NH1       70.0890  -29.1460   29.6550 N.pl3  45  ARG45       0.1354
     77  NH2       71.6550  -29.6840   31.2230 N.pl3  45  ARG45       0.1354
     78  N         60.2690  -20.6140   24.1810 N.3    56  GLU56      -0.1245
     79  CA        60.2540  -22.0120   23.7470 C.3    56  GLU56       0.1567
     80  C         58.9110  -22.3770   23.1380 C.2    56  GLU56       0.2260
     81  O         57.8750  -21.8520   23.5210 O.2    56  GLU56      -0.2867
     82  CB        60.5300  -22.9700   24.8970 C.3    56  GLU56       0.0388
     83  CG        59.5070  -22.8890   26.0000 C.3    56  GLU56       0.1160
     84  CD        58.3620  -23.9090   25.9280 C.2    56  GLU56       0.3649
     85  OE1       57.7560  -24.1110   26.9880 O.co2  56  GLU56      -0.2457
     86  OE2       58.0350  -24.4860   24.8700 O.co2  56  GLU56      -0.2457
     87  N         53.2000  -34.6220   24.3900 N.3    67  ARG67      -0.1245
     88  CA        53.6580  -33.3040   23.9560 C.3    67  ARG67       0.1563
     89  C         55.0710  -33.4640   23.4310 C.2    67  ARG67       0.2260
     90  O         55.3830  -33.0320   22.3210 O.2    67  ARG67      -0.2867
     91  CB        53.6130  -32.3040   25.1080 C.3    67  ARG67       0.0307
     92  CG        54.0420  -30.9040   24.7100 C.3    67  ARG67       0.0489
     93  CD        53.4360  -29.8730   25.6230 C.3    67  ARG67       0.2205
     94  NE        54.1320  -28.5960   25.4920 N.pl3  67  ARG67      -0.0865
     95  CZ        54.6920  -27.9330   26.4990 C.cat  67  ARG67       0.5346
     96  NH1       55.3140  -26.7790   26.2560 N.pl3  67  ARG67       0.1354
     97  NH2       54.6160  -28.4020   27.7470 N.pl3  67  ARG67       0.1354
     98  N         61.8010  -29.4110   20.8160 N.3    71  ARG71      -0.1245
     99  CA        61.5440  -28.0120   21.0620 C.3    71  ARG71       0.1563
    100  C         62.3300  -27.1280   20.1120 C.2    71  ARG71       0.2260
    101  O         63.3940  -27.5170   19.5900 O.2    71  ARG71      -0.2867
    102  CB        61.9290  -27.6560   22.5070 C.3    71  ARG71       0.0307
    103  CG        61.2080  -28.4630   23.6020 C.3    71  ARG71       0.0489
    104  CD        59.7420  -28.0650   23.7080 C.3    71  ARG71       0.2205
    105  NE        59.0910  -28.6500   24.8710 N.pl3  71  ARG71      -0.0865
    106  CZ        58.5440  -29.8600   24.9180 C.cat  71  ARG71       0.5346
    107  NH1       58.4860  -30.6360   23.8480 N.pl3  71  ARG71       0.1354
    108  NH2       58.0010  -30.2850   26.0530 N.pl3  71  ARG71       0.1354
    109  N         64.4560  -32.1820   24.8420 N.3    86  HIS86      -0.1226
    110  CA        63.9730  -31.3600   25.9580 C.3    86  HIS86       0.1752
    111  C         65.0680  -30.5140   26.6190 C.2    86  HIS86       0.2596
    112  O         65.2560  -30.5430   27.8370 O.2    86  HIS86      -0.2718
    113  CB        63.2520  -32.2350   26.9800 C.3    86  HIS86       0.0759
    114  CG        62.3000  -31.4790   27.8540 C.ar   86  HIS86       0.0818
    115  ND1       62.4690  -31.3710   29.2160 N.ar   86  HIS86      -0.2268
    116  CD2       61.1710  -30.7950   27.5600 C.ar   86  HIS86       0.1154
    117  CE1       61.4840  -30.6520   29.7270 C.ar   86  HIS86       0.1986
    118  NE2       60.6820  -30.2920   28.7420 N.ar   86  HIS86      -0.2212
    119  N         65.7910  -29.7700   25.7890 N.am   87  TYR87      -0.1976
    120  CA        66.8300  -28.8230   26.2330 C.3    87  TYR87       0.1639
    121  C         68.1210  -29.4380   26.7530 C.2    87  TYR87       0.2290
    122  O         68.9480  -28.7150   27.2880 O.2    87  TYR87      -0.2864
    123  CB        66.3000  -27.8520   27.2960 C.3    87  TYR87       0.0560
    124  CG        64.9150  -27.3270   27.0120 C.ar   87  TYR87      -0.0198
    125  CD1       64.6170  -26.7240   25.8000 C.ar   87  TYR87      -0.0009
    126  CD2       63.9130  -27.4390   27.9590 C.ar   87  TYR87      -0.0009
    127  CE1       63.3550  -26.2430   25.5370 C.ar   87  TYR87       0.0417
    128  CE2       62.6440  -26.9780   27.7110 C.ar   87  TYR87       0.0417
    129  CZ        62.3720  -26.3530   26.5040 C.ar   87  TYR87       0.1957
    130  OH        61.0960  -25.8990   26.2590 O.3    87  TYR87      -0.2866
@<TRIPOS>BOND
     1   101   100    2
     2   100    99    1
     3    98    99    1
     4    99   102    1
     5    90    89    2
     6   102   103    1
     7    80    81    2
     8    80    79    1
     9    89    88    1
    10   103   104    1
    11   104   105    1
    12    79    78    1
    13    79    82    1
    14   107   106    1
    15    88    87    1
    16    88    91    1
    17    92    91    1
    18    92    93    1
    19   109   110    1
    20    86    84   ar
    21   105   106    2
    22    82    83    1
    23   106   108    1
    24    70    69    2
    25    94    93    1
    26    94    95    2
    27   127   125   ar
    28   127   129   ar
    29     3     4    2
    30     3     2    1
    31   119   120    1
    32   119   111   am
    33   125   124   ar
    34    84    83    1
    35    84    85   ar
    36   110   111    1
    37   110   113    1
    38    69    68    1
    39   120   121    1
    40   120   123    1
    41    96    95    1
    42   130   129    1
    43     1     2    1
    44    95    97    1
    45   129   128   ar
    46   111   112    2
    47   121   122    2
    48     2     5    1
    49    23    24    1
    50    23    20    1
    51    25    24   ar
    52    25    27   ar
    53   113   114    1
    54   124   123    1
    55   124   126   ar
    56    24    26   ar
    57    27    29   ar
    58    71    68    1
    59    71    72    1
    60    68    67    1
    61   116   114   ar
    62   116   118   ar
    63     5     6    1
    64    26    28   ar
    65    29    28   ar
    66   128   126   ar
    67   114   115   ar
    68    19    20    1
    69    19    14   am
    70    45    44    2
    71    12    13    1
    72    20    21    1
    73    73    72    1
    74    73    74    1
    75    13    14    1
    76    13    16    1
    77    46    44   am
    78    22    21    2
    79    44    43    1
    80    14    15    2
    81   118   117   ar
    82    43    40    1
    83    21    30   am
    84    18    16    1
    85     6     7    1
    86   115   117   ar
    87    16    17    1
    88    74    75    2
    89    76    75    1
    90    40    39    1
    91    40    41    1
    92     7     8    1
    93    75    77    1
    94     8     9    2
    95    39    32   am
    96    30    31    1
    97    32    31    1
    98    32    33    2
    99    31    34    1
   100    41    42    2
   101    41    47   am
   102     9    11    1
   103     9    10    1
   104    61    60    2
   105    65    64   ar
   106    60    59    1
   107    62    59    1
   108    62    63    1
   109    47    48    1
   110    59    58    1
   111    64    63    1
   112    64    66   ar
   113    58    49   am
   114    34    35    1
   115    35    36    1
   116    49    48    1
   117    49    50    2
   118    48    51    1
   119    57    55    1
   120    51    52    1
   121    36    37   ar
   122    36    38   ar
   123    52    53    1
   124    55    56    1
   125    55    54    2
   126    54    53    1
