@<TRIPOS>MOLECULE
tmp/3d5mB00.pdb
 200 189 0 0 0
SMALL
GASTEIGER

@<TRIPOS>ATOM
      1  N         45.3090   48.1410   48.2190 N.3   188  PHE188     -0.1241
      2  CA        46.1930   49.1680   48.7960 C.3   188  PHE188      0.1605
      3  C         45.4520   50.3130   49.5110 C.2   188  PHE188      0.2264
      4  O         46.0870   51.2210   50.0510 O.2   188  PHE188     -0.2867
      5  CB        47.1420   49.7470   47.7380 C.3   188  PHE188      0.0534
      6  CG        48.2180   48.8010   47.2870 C.ar  188  PHE188     -0.0203
      7  CD1       49.1610   48.3040   48.1880 C.ar  188  PHE188     -0.0042
      8  CD2       48.3090   48.4250   45.9560 C.ar  188  PHE188     -0.0042
      9  CE1       50.1750   47.4320   47.7630 C.ar  188  PHE188     -0.0003
     10  CE2       49.3210   47.5660   45.5170 C.ar  188  PHE188     -0.0003
     11  CZ        50.2550   47.0750   46.4190 C.ar  188  PHE188     -0.0000
     12  N         45.9490   47.4070   57.8950 N.3   192  PRO192     -0.2116
     13  CA        45.8790   45.9690   58.2100 C.3   192  PRO192      0.1372
     14  C         44.5230   45.5890   58.8150 C.2   192  PRO192      0.2244
     15  O         43.9660   44.5420   58.4710 O.2   192  PRO192     -0.2868
     16  CB        47.0080   45.7640   59.2230 C.3   192  PRO192      0.0268
     17  CG        47.9060   46.9440   59.0610 C.3   192  PRO192      0.0207
     18  CD        47.0750   48.0790   58.5730 C.3   192  PRO192      0.0892
     19  N         41.9630   45.3530   56.0440 N.3   195  ARG195     -0.1245
     20  CA        42.2290   44.2180   55.1480 C.3   195  ARG195      0.1563
     21  C         41.7520   42.9000   55.7370 C.2   195  ARG195      0.2260
     22  O         41.1420   42.0900   55.0460 O.2   195  ARG195     -0.2867
     23  CB        43.7100   44.1180   54.7900 C.3   195  ARG195      0.0307
     24  CG        44.0180   42.9330   53.8860 C.3   195  ARG195      0.0489
     25  CD        45.4770   42.8400   53.5050 C.3   195  ARG195      0.2205
     26  NE        45.6960   41.6450   52.6910 N.pl3 195  ARG195     -0.0865
     27  CZ        45.6210   41.6270   51.3640 C.cat 195  ARG195      0.5346
     28  NH1       45.3390   42.7430   50.6990 N.pl3 195  ARG195      0.1354
     29  NH2       45.8180   40.4920   50.6970 N.pl3 195  ARG195      0.1354
     30  N         56.1510   40.9640   36.4890 N.3   220  ASP220     -0.1239
     31  CA        56.6620   42.0950   35.6910 C.3   220  ASP220      0.1674
     32  C         57.0940   41.6780   34.2960 C.2   220  ASP220      0.2266
     33  O         56.8590   42.3980   33.3260 O.2   220  ASP220     -0.2867
     34  CB        57.8380   42.8000   36.3930 C.3   220  ASP220      0.1410
     35  CG        57.3980   43.5950   37.6010 C.2   220  ASP220      0.3668
     36  OD1       56.1680   43.6410   37.8550 O.co2 220  ASP220     -0.2456
     37  OD2       58.2770   44.1660   38.2960 O.co2 220  ASP220     -0.2456
     38  N         60.3240   47.8200   37.0120 N.3   277  SER277     -0.1217
     39  CA        60.0120   47.8030   38.4320 C.3   277  SER277      0.1889
     40  C         60.0750   49.1780   39.1040 C.2   277  SER277      0.2288
     41  O         59.4320   49.3950   40.1380 O.2   277  SER277     -0.2866
     42  CB        60.9510   46.8420   39.1500 C.3   277  SER277      0.2089
     43  OG        62.2770   47.2780   38.9810 O.3   277  SER277     -0.2183
     44  N         54.1200   51.4410   38.1380 N.3   282  THR282     -0.1203
     45  CA        54.3430   49.9970   38.3520 C.3   282  THR282      0.1994
     46  C         53.2770   49.3310   39.2220 C.2   282  THR282      0.2618
     47  O         52.7730   48.2570   38.8870 O.2   282  THR282     -0.2717
     48  CB        55.7430   49.7000   38.9430 C.3   282  THR282      0.1784
     49  OG1       56.7380   50.1170   38.0110 O.3   282  THR282     -0.2211
     50  CG2       55.9240   48.1770   39.2230 C.3   282  THR282      0.0376
     51  N         52.9330   49.9760   40.3230 N.am  283  SER283     -0.1951
     52  CA        51.9570   49.4430   41.2550 C.3   283  SER283      0.1924
     53  C         50.5550   49.4630   40.6550 C.2   283  SER283      0.2314
     54  O         49.8980   48.4080   40.5490 O.2   283  SER283     -0.2863
     55  CB        52.0110   50.2160   42.5720 C.3   283  SER283      0.2116
     56  OG        50.9700   49.8370   43.4460 O.3   283  SER283     -0.2180
     57  N         50.3470   47.2180   37.4440 N.3   286  ASN286     -0.1240
     58  CA        50.2770   45.8180   37.8640 C.3   286  ASN286      0.1653
     59  C         48.9200   45.4480   38.4550 C.2   286  ASN286      0.2266
     60  O         48.3980   44.3760   38.1620 O.2   286  ASN286     -0.2867
     61  CB        51.4060   45.4660   38.8420 C.3   286  ASN286      0.1155
     62  CG        52.6870   45.0970   38.1360 C.2   286  ASN286      0.2627
     63  OD1       52.7220   45.0200   36.9110 O.2   286  ASN286     -0.2716
     64  ND2       53.7540   44.8590   38.9080 N.am  286  ASN286     -0.0877
     65  N         46.7070   43.5190   45.0580 N.3   311  ASN311     -0.1225
     66  CA        47.7230   44.4870   45.4240 C.3   311  ASN311      0.1785
     67  C         48.8710   44.3250   44.4190 C.2   311  ASN311      0.2598
     68  O         49.7310   43.4650   44.5980 O.2   311  ASN311     -0.2718
     69  CB        48.2600   44.2130   46.8410 C.3   311  ASN311      0.1169
     70  CG        47.2130   44.3740   47.9350 C.2   311  ASN311      0.2627
     71  OD1       47.2500   45.3450   48.7150 O.2   311  ASN311     -0.2716
     72  ND2       46.3000   43.4160   48.0290 N.am  311  ASN311     -0.0877
     73  N         48.8930   45.1320   43.3660 N.am  312  GLY312     -0.1942
     74  CA        49.8860   44.9610   42.2950 C.3   312  GLY312      0.2014
     75  C         49.7920   43.5430   41.7420 C.2   312  GLY312      0.2639
     76  O         48.7370   43.1190   41.2960 O.2   312  GLY312     -0.2714
     77  N         50.8830   42.7950   41.8350 N.am  313  ASP313     -0.1957
     78  CA        50.9450   41.4290   41.3060 C.3   313  ASP313      0.1840
     79  C         50.4120   40.3560   42.2680 C.2   313  ASP313      0.2622
     80  O         50.3490   39.1730   41.9250 O.2   313  ASP313     -0.2715
     81  CB        52.3830   41.1090   40.8910 C.3   313  ASP313      0.1450
     82  CG        53.3760   41.2090   42.0380 C.2   313  ASP313      0.3671
     83  OD1       54.5350   40.8150   41.8200 O.co2 313  ASP313     -0.2456
     84  OD2       53.0310   41.6720   43.1460 O.co2 313  ASP313     -0.2456
     85  N         50.0390   40.7820   43.4730 N.am  314  ASP314     -0.1971
     86  CA        49.5900   39.8900   44.5160 C.3   314  ASP314      0.1709
     87  C         48.0800   39.7140   44.4360 C.2   314  ASP314      0.2293
     88  O         47.3200   40.6880   44.4970 O.2   314  ASP314     -0.2864
     89  CB        50.0250   40.4240   45.8860 C.3   314  ASP314      0.1436
     90  CG        49.9400   39.3720   46.9770 C.2   314  ASP314      0.3671
     91  OD1       48.8050   38.9570   47.3210 O.co2 314  ASP314     -0.2456
     92  OD2       51.0100   38.9750   47.4940 O.co2 314  ASP314     -0.2456
     93  N         49.5160   38.9250   50.1570 N.3   361  CYS361     -0.1221
     94  CA        50.4670   39.9360   50.6160 C.3   361  CYS361      0.1808
     95  C         51.3440   39.3540   51.7200 C.2   361  CYS361      0.2602
     96  O         51.4710   39.9450   52.7930 O.2   361  CYS361     -0.2717
     97  CB        49.7440   41.1850   51.1170 C.3   361  CYS361      0.0970
     98  SG        49.0000   42.1490   49.8280 S.3   361  CYS361     -0.0800
     99  N         51.9090   38.1710   51.4510 N.am  362  SER362     -0.1938
    100  CA        52.8320   37.4780   52.3520 C.3   362  SER362      0.2055
    101  C         52.2880   37.2790   53.7800 C.2   362  SER362      0.2643
    102  O         53.0660   37.1370   54.7300 O.2   362  SER362     -0.2714
    103  CB        54.1950   38.1880   52.3650 C.3   362  SER362      0.2130
    104  OG        54.5690   38.6020   51.0530 O.3   362  SER362     -0.2179
    105  N         50.9610   37.2360   53.9160 N.am  363  SER363     -0.1949
    106  CA        50.3070   37.1670   55.2110 C.3   363  SER363      0.1924
    107  C         49.1190   36.2040   55.2110 C.2   363  SER363      0.2314
    108  O         48.4810   35.9800   54.1750 O.2   363  SER363     -0.2863
    109  CB        49.7980   38.5540   55.6160 C.3   363  SER363      0.2116
    110  OG        50.7830   39.5580   55.4420 O.3   363  SER363     -0.2180
    111  N         46.3720   39.7710   60.9390 N.3   379  LEU379     -0.1245
    112  CA        47.2410   39.2550   59.9000 C.3   379  LEU379      0.1561
    113  C         48.6290   38.9690   60.4350 C.2   379  LEU379      0.2260
    114  O         49.1930   39.7470   61.2190 O.2   379  LEU379     -0.2867
    115  CB        47.3000   40.1980   58.6910 C.3   379  LEU379      0.0270
    116  CG        46.0360   40.2000   57.8190 C.3   379  LEU379      0.0019
    117  CD1       45.9380   41.4780   56.9570 C.3   379  LEU379      0.0001
    118  CD2       45.9590   38.9410   56.9540 C.3   379  LEU379      0.0001
    119  N         52.5060   36.3600   59.6180 N.3   381  ARG381     -0.1245
    120  CA        53.3360   35.6470   58.6650 C.3   381  ARG381      0.1563
    121  C         54.3820   34.8410   59.4040 C.2   381  ARG381      0.2260
    122  O         54.5330   34.9680   60.6210 O.2   381  ARG381     -0.2867
    123  CB        53.9970   36.6110   57.6580 C.3   381  ARG381      0.0307
    124  CG        54.9590   37.6640   58.2420 C.3   381  ARG381      0.0489
    125  CD        55.7710   38.3060   57.1230 C.3   381  ARG381      0.2205
    126  NE        56.7600   37.3740   56.5810 N.pl3 381  ARG381     -0.0865
    127  CZ        57.3000   37.4450   55.3680 C.cat 381  ARG381      0.5346
    128  NH1       56.9630   38.4160   54.5290 N.pl3 381  ARG381      0.1354
    129  NH2       58.1890   36.5350   54.9920 N.pl3 381  ARG381      0.1354
    130  N         58.5970   48.9000   59.7020 N.3   405  GLY405     -0.1210
    131  CA        57.4640   48.5450   58.8610 C.3   405  GLY405      0.1956
    132  C         56.7770   47.2950   59.3750 C.2   405  GLY405      0.2611
    133  O         55.5540   47.2320   59.4010 O.2   405  GLY405     -0.2717
    134  N         57.5690   46.3040   59.7880 N.am  406  ASN406     -0.1974
    135  CA        57.0280   45.0670   60.3580 C.3   406  ASN406      0.1688
    136  C         56.2950   45.2750   61.6850 C.2   406  ASN406      0.2292
    137  O         55.2070   44.7430   61.8890 O.2   406  ASN406     -0.2864
    138  CB        58.1200   43.9950   60.5020 C.3   406  ASN406      0.1181
    139  CG        58.4460   43.3160   59.1850 C.2   406  ASN406      0.2629
    140  OD1       57.5520   42.8820   58.4610 O.2   406  ASN406     -0.2716
    141  ND2       59.7280   43.2360   58.8600 N.am  406  ASN406     -0.0877
    142  N         52.8160   47.0220   60.7320 N.3   409  MET409     -0.1230
    143  CA        51.8190   46.2530   59.9990 C.3   409  MET409      0.1702
    144  C         51.4810   44.9260   60.6860 C.2   409  MET409      0.2592
    145  O         50.3860   44.3850   60.4980 O.2   409  MET409     -0.2718
    146  CB        52.2810   46.0350   58.5540 C.3   409  MET409      0.0401
    147  CG        52.4960   47.3400   57.7770 C.3   409  MET409      0.0596
    148  SD        50.9470   48.2120   57.4620 S.3   409  MET409     -0.1393
    149  CE        50.3300   47.1650   56.1310 C.3   409  MET409      0.0692
    150  N         52.4180   44.4250   61.4900 N.am  410  TYR410     -0.1976
    151  CA        52.2430   43.1690   62.2120 C.3   410  TYR410      0.1639
    152  C         52.2290   43.3810   63.7220 C.2   410  TYR410      0.2290
    153  O         52.5580   42.4760   64.4800 O.2   410  TYR410     -0.2864
    154  CB        53.3420   42.1620   61.8370 C.3   410  TYR410      0.0560
    155  CG        53.2860   41.6950   60.4060 C.ar  410  TYR410     -0.0198
    156  CD1       52.2120   40.9170   59.9450 C.ar  410  TYR410     -0.0009
    157  CD2       54.3130   42.0140   59.5100 C.ar  410  TYR410     -0.0009
    158  CE1       52.1630   40.4670   58.6300 C.ar  410  TYR410      0.0417
    159  CE2       54.2740   41.5730   58.1830 C.ar  410  TYR410      0.0417
    160  CZ        53.1920   40.8040   57.7500 C.ar  410  TYR410      0.1957
    161  OH        53.1520   40.3590   56.4510 O.3   410  TYR410     -0.2866
    162  N         59.1560   51.8660   54.5610 N.3   441  GLN441     -0.1231
    163  CA        58.3950   51.7390   53.3290 C.3   441  GLN441      0.1698
    164  C         57.1160   50.9330   53.5970 C.2   441  GLN441      0.2592
    165  O         57.1720   49.7690   54.0370 O.2   441  GLN441     -0.2718
    166  CB        59.2610   51.0710   52.2600 C.3   441  GLN441      0.0381
    167  CG        59.3350   51.8330   50.9450 C.3   441  GLN441      0.0905
    168  CD        60.5030   51.3960   50.0840 C.2   441  GLN441      0.2608
    169  OE1       61.3650   52.2040   49.7290 O.2   441  GLN441     -0.2717
    170  NE2       60.5470   50.1110   49.7500 N.am  441  GLN441     -0.0878
    171  N         55.9720   51.5750   53.3770 N.am  442  ILE442     -0.1966
    172  CA        54.6660   50.9270   53.5230 C.3   442  ILE442      0.1727
    173  C         53.8990   51.1150   52.2270 C.2   442  ILE442      0.2616
    174  O         53.6900   52.2500   51.7750 O.2   442  ILE442     -0.2715
    175  CB        53.8750   51.4620   54.7580 C.3   442  ILE442      0.0290
    176  CG1       54.4820   50.8910   56.0450 C.3   442  ILE442      0.0022
    177  CG2       52.3760   51.0870   54.6850 C.3   442  ILE442      0.0023
    178  CD1       54.0260   51.5760   57.2950 C.3   442  ILE442      0.0001
    179  N         53.5070   49.9920   51.6290 N.am  443  TYR443     -0.1960
    180  CA        52.9300   49.9560   50.2730 C.3   443  TYR443      0.1771
    181  C         53.7820   50.6610   49.2110 C.2   443  TYR443      0.2620
    182  O         53.2500   51.2510   48.2600 O.2   443  TYR443     -0.2715
    183  CB        51.4860   50.4740   50.2540 C.3   443  TYR443      0.0574
    184  CG        50.4990   49.6170   51.0170 C.ar  443  TYR443     -0.0198
    185  CD1       50.7760   48.2730   51.3000 C.ar  443  TYR443     -0.0009
    186  CD2       49.2670   50.1340   51.4190 C.ar  443  TYR443     -0.0009
    187  CE1       49.8670   47.4810   51.9930 C.ar  443  TYR443      0.0417
    188  CE2       48.3480   49.3390   52.0950 C.ar  443  TYR443      0.0417
    189  CZ        48.6640   48.0160   52.3860 C.ar  443  TYR443      0.1957
    190  OH        47.7660   47.2250   53.0750 O.3   443  TYR443     -0.2866
    191  N         55.1020   50.6000   49.3810 N.am  444  GLY444     -0.1954
    192  CA        56.0330   51.1240   48.3850 C.3   444  GLY444      0.1869
    193  C         56.4750   52.5600   48.6080 C.2   444  GLY444      0.2309
    194  O         57.5480   52.9720   48.1380 O.2   444  GLY444     -0.2863
    195  N         54.9780   51.0130   44.9090 N.3   551  SER551     -0.1217
    196  CA        56.2160   50.2480   44.8040 C.3   551  SER551      0.1889
    197  C         57.0250   50.6710   43.5800 C.2   551  SER551      0.2288
    198  O         56.5070   50.7110   42.4570 O.2   551  SER551     -0.2866
    199  CB        55.9680   48.7460   44.7870 C.3   551  SER551      0.2089
    200  OG        57.1910   48.0700   44.5340 O.3   551  SER551     -0.2183
@<TRIPOS>BOND
     1    33    32    2
     2    32    31    1
     3    31    34    1
     4    31    30    1
     5    34    35    1
     6    63    62    2
     7    38    39    1
     8    57    58    1
     9    35    36   ar
    10    35    37   ar
    11    58    59    1
    12    58    61    1
    13    49    48    1
    14    62    61    1
    15    62    64   am
    16    44    45    1
    17    60    59    2
    18    45    48    1
    19    45    46    1
    20    39    40    1
    21    39    42    1
    22    47    46    2
    23    48    50    1
    24    43    42    1
    25    40    41    2
    26    46    51   am
    27    51    52    1
    28    54    53    2
    29    53    52    1
    30    81    78    1
    31    81    82    1
    32    52    55    1
    33    76    75    2
    34    78    77    1
    35    78    79    1
    36    75    77   am
    37    75    74    1
    38    83    82   ar
    39    80    79    2
    40    82    84   ar
    41    79    85   am
    42    74    73    1
    43   198   197    2
    44    55    56    1
    45    73    67   am
    46    85    86    1
    47   197   196    1
    48    67    68    2
    49    67    66    1
    50    87    88    2
    51    87    86    1
    52    86    89    1
    53   200   199    1
    54   199   196    1
    55   196   195    1
    56    65    66    1
    57    66    69    1
    58    10     8   ar
    59    10    11   ar
    60    89    90    1
    61     8     6   ar
    62    11     9   ar
    63    69    70    1
    64    90    91   ar
    65    90    92   ar
    66     6     5    1
    67     6     7   ar
    68     5     2    1
    69     9     7   ar
    70    70    72   am
    71    70    71    2
    72   194   193    2
    73     1     2    1
    74   182   181    2
    75   192   193    1
    76   192   191    1
    77     2     3    1
    78   181   191   am
    79   181   180    1
    80     3     4    2
    81   169   168    2
    82   170   168   am
    83    98    97    1
    84   168   167    1
    85    93    94    1
    86   183   180    1
    87   183   184    1
    88   180   179    1
    89    94    97    1
    90    94    95    1
    91    29    27    1
    92    28    27    1
    93   167   166    1
    94   184   185   ar
    95   184   186   ar
    96   104   103    1
    97   185   187   ar
    98    27    26    2
    99   186   188   ar
   100    99    95   am
   101    99   100    1
   102   179   173   am
   103    95    96    2
   104   174   173    2
   105   187   189   ar
   106   188   189   ar
   107   173   172    1
   108   166   163    1
   109   100   103    1
   110   100   101    1
   111   189   190    1
   112    26    25    1
   113   163   164    1
   114   163   162    1
   115   171   172    1
   116   171   164   am
   117    25    24    1
   118   172   175    1
   119   164   165    2
   120   101   105   am
   121   101   102    2
   122    24    23    1
   123   105   106    1
   124   108   107    2
   125   128   127    1
   126   177   175    1
   127   175   176    1
   128    23    20    1
   129   129   127    1
   130    22    21    2
   131    20    21    1
   132    20    19    1
   133   107   106    1
   134   106   109    1
   135   127   126    2
   136   110   109    1
   137   176   178    1
   138   149   148    1
   139   161   160    1
   140   126   125    1
   141   118   116    1
   142   117   116    1
   143   125   124    1
   144   148   147    1
   145   123   124    1
   146   123   120    1
   147   160   159   ar
   148   160   158   ar
   149   147   146    1
   150   116   115    1
   151    12    13    1
   152    12    18    1
   153   159   157   ar
   154    13    14    1
   155    13    16    1
   156   140   139    2
   157    15    14    2
   158   146   143    1
   159    18    17    1
   160   158   156   ar
   161   120   121    1
   162   120   119    1
   163   115   112    1
   164   141   139   am
   165   131   132    1
   166   131   130    1
   167    17    16    1
   168   139   138    1
   169   132   133    2
   170   132   134   am
   171   121   122    2
   172   157   155   ar
   173   134   135    1
   174   112   113    1
   175   112   111    1
   176   156   155   ar
   177   143   144    1
   178   143   142    1
   179   135   138    1
   180   135   136    1
   181   155   154    1
   182   113   114    2
   183   145   144    2
   184   144   150   am
   185   150   151    1
   186   136   137    2
   187   154   151    1
   188   151   152    1
   189   152   153    2
