@<TRIPOS>MOLECULE
tmp/3d5qC01.pdb
 150 142 0 0 0
SMALL
GASTEIGER

@<TRIPOS>ATOM
      1  N        -16.5530   50.4820   10.3860 N.3    99  ILE99      -0.1245
      2  CA       -16.6130   50.1750    8.9530 C.3    99  ILE99       0.1561
      3  C        -17.3860   51.2300    8.2160 C.2    99  ILE99       0.2260
      4  O        -18.2590   51.8590    8.7770 O.2    99  ILE99      -0.2867
      5  CB       -17.3290   48.8620    8.6350 C.3    99  ILE99       0.0252
      6  CG1      -18.6640   48.7850    9.3840 C.3    99  ILE99       0.0019
      7  CG2      -16.4200   47.6880    8.8790 C.3    99  ILE99       0.0019
      8  CD1      -19.5670   47.6710    8.9010 C.3    99  ILE99       0.0001
      9  N        -21.9660   49.6010    3.6950 N.3   102  THR102     -0.1203
     10  CA       -22.1000   48.8790    2.4160 C.3   102  THR102      0.1994
     11  C        -23.4620   48.2240    2.3530 C.2   102  THR102      0.2619
     12  O        -24.2500   48.2860    3.3000 O.2   102  THR102     -0.2717
     13  CB       -21.1160   47.6980    2.2220 C.3   102  THR102      0.1784
     14  OG1      -21.4960   46.6190    3.0820 O.3   102  THR102     -0.2211
     15  CG2      -19.6380   48.0910    2.4690 C.3   102  THR102      0.0376
     16  N        -23.7360   47.5790    1.2310 N.am  103  SER103     -0.1937
     17  CA       -25.0150   46.9130    1.0730 C.3   103  SER103      0.2055
     18  C        -24.7770   45.5050    0.6050 C.2   103  SER103      0.2642
     19  O        -23.7150   45.1800    0.0740 O.2   103  SER103     -0.2714
     20  CB       -25.8940   47.6420    0.0560 C.3   103  SER103      0.2130
     21  OG       -26.0910   49.0030    0.3950 O.3   103  SER103     -0.2179
     22  N        -25.7570   44.6520    0.8330 N.am  104  LEU104     -0.1977
     23  CA       -25.7500   43.3680    0.1660 C.3   104  LEU104      0.1596
     24  C        -26.0050   43.6800   -1.3000 C.2   104  LEU104      0.2287
     25  O        -27.0560   44.2030   -1.6570 O.2   104  LEU104     -0.2864
     26  CB       -26.8140   42.4450    0.7580 C.3   104  LEU104      0.0297
     27  CG       -26.3780   41.9180    2.1320 C.3   104  LEU104      0.0022
     28  CD1      -27.5710   41.6720    3.0660 C.3   104  LEU104      0.0001
     29  CD2      -25.4890   40.6650    1.9930 C.3   104  LEU104      0.0001
     30  N        -14.5480   39.5350   10.4580 N.3   148  SER148     -0.1202
     31  CA       -15.7310   38.6700   10.3820 C.3   148  SER148      0.2020
     32  C        -15.4740   37.3480    9.6870 C.2   148  SER148      0.2619
     33  O        -14.3940   37.1150    9.1460 O.2   148  SER148     -0.2717
     34  CB       -16.8710   39.3820    9.6600 C.3   148  SER148      0.2103
     35  OG       -16.6700   39.3410    8.2650 O.3   148  SER148     -0.2182
     36  N        -16.4690   36.4730    9.7060 N.am  149  LEU149     -0.1965
     37  CA       -16.3480   35.2310    8.9670 C.3   149  LEU149      0.1728
     38  C        -15.9150   35.5970    7.5650 C.2   149  LEU149      0.2616
     39  O        -15.0170   34.9780    6.9930 O.2   149  LEU149     -0.2715
     40  CB       -17.6910   34.5090    8.9270 C.3   149  LEU149      0.0311
     41  CG       -18.0210   33.5990   10.1100 C.3   149  LEU149      0.0022
     42  CD1      -19.5260   33.4440   10.2600 C.3   149  LEU149      0.0001
     43  CD2      -17.3470   32.2480    9.9210 C.3   149  LEU149      0.0001
     44  N        -16.5350   36.6510    7.0390 N.am  150  ALA150     -0.1977
     45  CA       -16.3110   37.0740    5.6750 C.3   150  ALA150      0.1597
     46  C        -14.9000   37.5820    5.4400 C.2   150  ALA150      0.2287
     47  O        -14.5820   38.0280    4.3420 O.2   150  ALA150     -0.2864
     48  CB       -17.3240   38.1160    5.2770 C.3   150  ALA150      0.0319
     49  N        -13.4980   33.6050    4.8690 N.3   153  VAL153     -0.1231
     50  CA       -14.0670   32.7560    3.8360 C.3   153  VAL153      0.1692
     51  C        -14.9000   33.5670    2.8220 C.2   153  VAL153      0.2592
     52  O        -15.2390   34.7150    3.0750 O.2   153  VAL153     -0.2718
     53  CB       -14.8930   31.6010    4.4830 C.3   153  VAL153      0.0266
     54  CG1      -14.0420   30.8740    5.5200 C.3   153  VAL153      0.0020
     55  CG2      -16.1770   32.1360    5.1320 C.3   153  VAL153      0.0020
     56  N        -15.2290   32.9700    1.6800 N.am  154  ALA154     -0.1966
     57  CA       -15.8670   33.7130    0.6100 C.3   154  ALA154      0.1728
     58  C        -17.3620   33.7800    0.8120 C.2   154  ALA154      0.2616
     59  O        -17.9760   32.8590    1.3370 O.2   154  ALA154     -0.2715
     60  CB       -15.5600   33.0870   -0.7140 C.3   154  ALA154      0.0334
     61  N        -17.9550   34.8760    0.3790 N.am  155  TYR155     -0.1974
     62  CA       -19.3800   35.0220    0.4440 C.3   155  TYR155      0.1639
     63  C        -19.7220   35.9560   -0.7150 C.2   155  TYR155      0.2290
     64  O        -18.8510   36.6770   -1.1870 O.2   155  TYR155     -0.2864
     65  CB       -19.7550   35.6290    1.7940 C.3   155  TYR155      0.0560
     66  CG       -21.1700   35.3510    2.2260 C.ar  155  TYR155     -0.0198
     67  CD1      -22.0230   36.3830    2.5880 C.ar  155  TYR155     -0.0009
     68  CD2      -21.6600   34.0520    2.2540 C.ar  155  TYR155     -0.0009
     69  CE1      -23.3380   36.1310    2.9840 C.ar  155  TYR155      0.0417
     70  CE2      -22.9650   33.7820    2.6450 C.ar  155  TYR155      0.0417
     71  CZ       -23.8030   34.8230    3.0080 C.ar  155  TYR155      0.1957
     72  OH       -25.1020   34.5500    3.3960 O.3   155  TYR155     -0.2866
     73  N        -20.7870   40.8010   -0.9360 N.3   158  VAL158     -0.1245
     74  CA       -19.8980   41.5610   -0.0750 C.3   158  VAL158      0.1561
     75  C        -18.4390   41.4460   -0.5210 C.2   158  VAL158      0.2260
     76  O        -17.5550   41.2190    0.3150 O.2   158  VAL158     -0.2867
     77  CB       -19.9260   41.0410    1.3890 C.3   158  VAL158      0.0252
     78  CG1      -21.3030   41.1550    2.0110 C.3   158  VAL158      0.0019
     79  CG2      -19.4350   39.6290    1.4400 C.3   158  VAL158      0.0019
     80  N        -16.3540   44.4080    1.0090 N.3   161  TYR161     -0.1241
     81  CA       -16.2330   44.1550    2.4300 C.3   161  TYR161      0.1605
     82  C        -15.1590   43.0840    2.7300 C.2   161  TYR161      0.2264
     83  O        -14.2070   43.3340    3.4670 O.2   161  TYR161     -0.2867
     84  CB       -17.6000   43.7390    2.9450 C.3   161  TYR161      0.0534
     85  CG       -17.7190   43.5200    4.4240 C.ar  161  TYR161     -0.0201
     86  CD1      -17.8490   44.5990    5.2980 C.ar  161  TYR161     -0.0009
     87  CD2      -17.7390   42.2280    4.9520 C.ar  161  TYR161     -0.0009
     88  CE1      -17.9810   44.4070    6.6440 C.ar  161  TYR161      0.0417
     89  CE2      -17.8590   42.0230    6.3110 C.ar  161  TYR161      0.0417
     90  CZ       -17.9870   43.1190    7.1520 C.ar  161  TYR161      0.1957
     91  OH       -18.1200   42.9270    8.5100 O.3   161  TYR161     -0.2866
     92  N        -16.3600   37.5000   13.5260 N.3   193  LEU193     -0.1231
     93  CA       -17.7240   37.5090   14.0480 C.3   193  LEU193      0.1693
     94  C        -18.7430   36.9920   13.0600 C.2   193  LEU193      0.2593
     95  O        -18.7120   37.3180   11.8760 O.2   193  LEU193     -0.2718
     96  CB       -18.1170   38.9270   14.4840 C.3   193  LEU193      0.0284
     97  CG       -17.0830   39.6000   15.3860 C.3   193  LEU193      0.0019
     98  CD1      -17.5310   41.0160   15.6910 C.3   193  LEU193      0.0001
     99  CD2      -16.8860   38.7930   16.6830 C.3   193  LEU193      0.0001
    100  N        -19.6630   36.1800   13.5500 N.am  194  GLY194     -0.1942
    101  CA       -20.7520   35.7350   12.7110 C.3   194  GLY194      0.2014
    102  C        -21.8230   36.7840   12.8060 C.2   194  GLY194      0.2639
    103  O        -21.6580   37.7780   13.4970 O.2   194  GLY194     -0.2714
    104  N        -22.9270   36.5710   12.1130 N.am  195  LEU195     -0.1963
    105  CA       -24.0510   37.4750   12.2310 C.3   195  LEU195      0.1728
    106  C        -24.2180   37.9280   13.6850 C.2   195  LEU195      0.2616
    107  O        -24.3120   37.1070   14.6020 O.2   195  LEU195     -0.2715
    108  CB       -25.3100   36.7690   11.7360 C.3   195  LEU195      0.0311
    109  CG       -26.6050   37.5780   11.7080 C.3   195  LEU195      0.0022
    110  CD1      -26.3490   38.9690   11.1230 C.3   195  LEU195      0.0001
    111  CD2      -27.6670   36.8270   10.9180 C.3   195  LEU195      0.0001
    112  N        -24.2310   39.2410   13.8980 N.am  196  ILE196     -0.1977
    113  CA       -24.4980   39.7980   15.2210 C.3   196  ILE196      0.1596
    114  C        -25.7810   40.5970   15.1040 C.2   196  ILE196      0.2287
    115  O        -26.0590   41.1370   14.0470 O.2   196  ILE196     -0.2864
    116  CB       -23.3590   40.7210   15.7060 C.3   196  ILE196      0.0276
    117  CG1      -22.0130   40.0310   15.5420 C.3   196  ILE196      0.0022
    118  CG2      -23.5620   41.1000   17.1730 C.3   196  ILE196      0.0022
    119  CD1      -21.9050   38.7780   16.3510 C.3   196  ILE196      0.0001
    120  N        -27.1120   43.4390   15.2550 N.3   198  THR198     -0.1218
    121  CA       -27.0640   44.9010   15.2570 C.3   198  THR198      0.1862
    122  C        -28.0800   45.5200   14.2920 C.2   198  THR198      0.2287
    123  O        -28.2880   45.0200   13.1830 O.2   198  THR198     -0.2866
    124  CB       -25.6290   45.4680   14.9760 C.3   198  THR198      0.1770
    125  OG1      -25.1470   45.0120   13.7030 O.3   198  THR198     -0.2211
    126  CG2      -24.6560   45.0480   16.0640 C.3   198  THR198      0.0375
    127  N        -28.0720   47.9160   12.1500 N.3   200  THR200     -0.1203
    128  CA       -27.5370   48.0130   10.7990 C.3   200  THR200      0.1994
    129  C        -27.4620   46.6720   10.0740 C.2   200  THR200      0.2617
    130  O        -27.7330   46.5830    8.8780 O.2   200  THR200     -0.2717
    131  CB       -26.1330   48.6370   10.8400 C.3   200  THR200      0.1784
    132  OG1      -26.2180   49.9470   11.4140 O.3   200  THR200     -0.2211
    133  CG2      -25.5240   48.7330    9.4480 C.3   200  THR200      0.0376
    134  N        -27.0680   45.6290   10.7930 N.am  201  ALA201     -0.1979
    135  CA       -26.9130   44.3280   10.1740 C.3   201  ALA201      0.1597
    136  C        -28.2800   43.7280    9.9080 C.2   201  ALA201      0.2287
    137  O        -28.4980   43.0930    8.8710 O.2   201  ALA201     -0.2864
    138  CB       -26.1010   43.4090   11.0590 C.3   201  ALA201      0.0319
    139  N        -30.1260   45.2440    7.1270 N.3   204  ALA204     -0.1231
    140  CA       -29.4400   45.0430    5.8610 C.3   204  ALA204      0.1694
    141  C        -29.7140   43.6590    5.3010 C.2   204  ALA204      0.2591
    142  O        -29.6130   43.4420    4.0990 O.2   204  ALA204     -0.2718
    143  CB       -27.9400   45.2660    6.0190 C.3   204  ALA204      0.0304
    144  N        -30.0710   42.7230    6.1720 N.am  205  VAL205     -0.1980
    145  CA       -30.2130   41.3260    5.7560 C.3   205  VAL205      0.1595
    146  C        -31.5850   40.9990    5.1470 C.2   205  VAL205      0.2287
    147  O        -31.6920   40.1450    4.2560 O.2   205  VAL205     -0.2864
    148  CB       -29.8850   40.3360    6.9150 C.3   205  VAL205      0.0276
    149  CG1      -28.4040   40.3840    7.2590 C.3   205  VAL205      0.0022
    150  CG2      -30.7420   40.6180    8.1530 C.3   205  VAL205      0.0022
@<TRIPOS>BOND
     1    25    24    2
     2    24    23    1
     3    64    63    2
     4    73    74    1
     5    63    62    1
     6    60    57    1
     7    75    74    1
     8    75    76    2
     9    74    77    1
    10    20    21    1
    11    20    17    1
    12    19    18    2
    13    23    26    1
    14    23    22    1
    15    61    62    1
    16    61    58   am
    17    62    65    1
    18    18    22   am
    19    18    17    1
    20    57    58    1
    21    57    56    1
    22    26    27    1
    23    58    59    2
    24    80    81    1
    25    17    16    1
    26    16    11   am
    27    77    79    1
    28    77    78    1
    29    56    51   am
    30    65    66    1
    31    29    27    1
    32    27    28    1
    33    13    10    1
    34    13    15    1
    35    13    14    1
    36    66    68   ar
    37    66    67   ar
    38    68    70   ar
    39    11    10    1
    40    11    12    2
    41    10     9    1
    42    81    82    1
    43    81    84    1
    44    67    69   ar
    45    70    71   ar
    46    82    83    2
    47    51    52    2
    48    51    50    1
    49    84    85    1
    50    69    71   ar
    51    71    72    1
    52    50    53    1
    53    50    49    1
    54   142   141    2
    55   147   146    2
    56    47    46    2
    57    85    87   ar
    58    85    86   ar
    59    53    55    1
    60    53    54    1
    61    87    89   ar
    62   146   145    1
    63    48    45    1
    64    86    88   ar
    65   141   140    1
    66   141   144   am
    67    46    45    1
    68    45    44    1
    69   145   144    1
    70   145   148    1
    71   140   143    1
    72   140   139    1
    73    89    90   ar
    74    88    90   ar
    75   148   149    1
    76   148   150    1
    77    39    38    2
    78    44    38   am
    79    90    91    1
    80    38    37    1
    81     3     4    2
    82     3     2    1
    83    35    34    1
    84     5     7    1
    85     5     2    1
    86     5     6    1
    87   137   136    2
    88   130   129    2
    89     8     6    1
    90    40    37    1
    91    40    41    1
    92     2     1    1
    93    37    36    1
    94    33    32    2
    95   133   131    1
    96    34    31    1
    97    32    36   am
    98    32    31    1
    99   136   135    1
   100    43    41    1
   101   129   134   am
   102   129   128    1
   103    41    42    1
   104   135   134    1
   105   135   138    1
   106    31    30    1
   107   128   131    1
   108   128   127    1
   109   131   132    1
   110   111   109    1
   111   110   109    1
   112   109   108    1
   113   108   105    1
   114    95    94    2
   115   104   105    1
   116   104   102   am
   117   105   106    1
   118   101   102    1
   119   101   100    1
   120   102   103    2
   121    94   100   am
   122    94    93    1
   123   123   122    2
   124    92    93    1
   125   106   112   am
   126   106   107    2
   127   125   124    1
   128   112   113    1
   129   115   114    2
   130    93    96    1
   131   122   121    1
   132    96    97    1
   133   124   121    1
   134   124   126    1
   135   114   113    1
   136   113   116    1
   137   120   121    1
   138    97    98    1
   139    97    99    1
   140   117   116    1
   141   117   119    1
   142   116   118    1
