@<TRIPOS>MOLECULE
tmp/3d5wA00.pdb
 160 151 0 0 0
SMALL
GASTEIGER

@<TRIPOS>ATOM
      1  N         48.0720   16.3700   83.8220 N.3    22  LEU22      -0.1231
      2  CA        47.0400   16.0680   82.8310 C.3    22  LEU22       0.1693
      3  C         47.6300   15.6940   81.4770 C.2    22  LEU22       0.2593
      4  O         47.0590   14.8810   80.7490 O.2    22  LEU22      -0.2718
      5  CB        46.0700   17.2450   82.6750 C.3    22  LEU22       0.0284
      6  CG        45.1610   17.5940   83.8590 C.3    22  LEU22       0.0019
      7  CD1       44.5220   18.9520   83.6420 C.3    22  LEU22       0.0001
      8  CD2       44.0950   16.5300   84.0970 C.3    22  LEU22       0.0001
      9  N         48.7710   16.2940   81.1480 N.am   23  GLY23      -0.1942
     10  CA        49.4460   16.0380   79.8810 C.3    23  GLY23       0.2014
     11  C         50.3510   17.1770   79.4550 C.2    23  GLY23       0.2639
     12  O         50.3390   18.2520   80.0590 O.2    23  GLY23      -0.2714
     13  N         51.1390   16.9310   78.4130 N.am   24  LYS24      -0.1963
     14  CA        52.0320   17.9400   77.8480 C.3    24  LYS24       0.1728
     15  C         51.9440   17.9710   76.3180 C.2    24  LYS24       0.2617
     16  O         51.2500   17.1500   75.7150 O.2    24  LYS24      -0.2715
     17  CB        53.4750   17.7220   78.3230 C.3    24  LYS24       0.0311
     18  CG        54.1070   16.3980   77.9070 C.3    24  LYS24       0.0038
     19  CD        55.5880   16.3750   78.2570 C.3    24  LYS24       0.0206
     20  CE        56.2570   15.1000   77.7710 C.3    24  LYS24       0.1093
     21  NZ        57.7240   15.1150   78.0320 N.3    24  LYS24      -0.1314
     22  N         52.6410   18.9230   75.6980 N.am   25  GLY25      -0.1940
     23  CA        52.6180   19.0660   74.2440 C.3    25  GLY25       0.2014
     24  C         53.6140   20.0700   73.6990 C.2    25  GLY25       0.2639
     25  O         54.8170   19.9630   73.9480 O.2    25  GLY25      -0.2714
     26  N         53.1020   21.0480   72.9520 N.am   26  GLY26      -0.1939
     27  CA        53.9310   22.0540   72.2880 C.3    26  GLY26       0.2014
     28  C         54.5450   23.0640   73.2390 C.2    26  GLY26       0.2639
     29  O         54.1100   24.2170   73.2990 O.2    26  GLY26      -0.2714
     30  N         55.5580   22.6200   73.9810 N.am   27  PHE27      -0.1959
     31  CA        56.2700   23.4650   74.9390 C.3    27  PHE27       0.1771
     32  C         55.4090   23.8910   76.1300 C.2    27  PHE27       0.2619
     33  O         55.6450   24.9450   76.7220 O.2    27  PHE27      -0.2715
     34  CB        56.8080   24.7500   74.2190 C.3    27  PHE27       0.0574
     35  CG        55.8080   25.6720   73.5500 C.ar   27  PHE27      -0.0200
     36  CD1       55.0310   26.5880   74.3010 C.ar   27  PHE27      -0.0042
     37  CD2       55.5360   25.6360   72.1880 C.ar   27  PHE27      -0.0042
     38  CE1       54.1410   27.4280   73.7060 C.ar   27  PHE27      -0.0003
     39  CE2       54.6740   26.5080   71.5790 C.ar   27  PHE27      -0.0003
     40  CZ        53.9400   27.4040   72.3410 C.ar   27  PHE27      -0.0000
     41  N         54.4180   23.0710   76.4750 N.am   28  ALA28      -0.1977
     42  CA        53.5180   23.3650   77.5900 C.3    28  ALA28       0.1597
     43  C         53.2060   22.1140   78.4060 C.2    28  ALA28       0.2287
     44  O         53.1490   21.0100   77.8660 O.2    28  ALA28      -0.2864
     45  CB        52.2330   24.0080   77.0830 C.3    28  ALA28       0.0319
     46  N         50.3370   20.8230   81.2510 N.3    30  CYS30      -0.1235
     47  CA        49.0420   21.1380   81.8520 C.3    30  CYS30       0.1677
     48  C         48.8080   20.4050   83.1760 C.2    30  CYS30       0.2270
     49  O         49.1590   19.2310   83.3190 O.2    30  CYS30      -0.2867
     50  CB        47.9140   20.8340   80.8640 C.3    30  CYS30       0.0956
     51  SG        46.2960   21.4720   81.3540 S.3    30  CYS30      -0.0801
     52  N         41.9970   23.8250   84.4550 N.3    43  ALA43      -0.1245
     53  CA        43.1970   23.2940   83.8190 C.3    43  ALA43       0.1562
     54  C         44.2090   24.4200   83.6290 C.2    43  ALA43       0.2260
     55  O         43.9140   25.4300   82.9840 O.2    43  ALA43      -0.2867
     56  CB        42.8580   22.6400   82.4860 C.3    43  ALA43       0.0290
     57  N         47.6170   25.6110   82.0640 N.3    45  LYS45      -0.1245
     58  CA        48.7050   25.4570   81.1040 C.3    45  LYS45       0.1561
     59  C         49.9190   26.2530   81.5720 C.2    45  LYS45       0.2260
     60  O         49.8420   27.4700   81.7590 O.2    45  LYS45      -0.2867
     61  CB        48.2710   25.9060   79.7050 C.3    45  LYS45       0.0271
     62  CG        47.3420   24.9310   78.9950 C.3    45  LYS45       0.0035
     63  CD        47.0580   25.6060   77.5250 C.3    45  LYS45       0.0206
     64  CE        46.1790   24.6350   76.7560 C.3    45  LYS45       0.1093
     65  NZ        45.9700   25.0710   75.3470 N.3    45  LYS45      -0.1314
     66  N         36.6480   25.4940   74.6100 N.3    75  VAL75      -0.1245
     67  CA        37.3550   25.4970   75.8950 C.3    75  VAL75       0.1561
     68  C         37.3270   26.9090   76.4860 C.2    75  VAL75       0.2260
     69  O         37.8440   27.8530   75.8860 O.2    75  VAL75      -0.2867
     70  CB        38.8240   25.0070   75.7610 C.3    75  VAL75       0.0252
     71  CG1       39.5630   25.1280   77.0880 C.3    75  VAL75       0.0019
     72  CG2       38.8720   23.5710   75.2670 C.3    75  VAL75       0.0019
     73  N         42.3100   27.4700   82.1400 N.3    91  LEU91      -0.1231
     74  CA        41.2920   27.0020   81.2050 C.3    91  LEU91       0.1693
     75  C         40.2260   26.1320   81.8600 C.2    91  LEU91       0.2592
     76  O         40.4200   25.6200   82.9660 O.2    91  LEU91      -0.2718
     77  CB        41.9480   26.2240   80.0600 C.3    91  LEU91       0.0284
     78  CG        42.8680   26.9720   79.0940 C.3    91  LEU91       0.0019
     79  CD1       43.6140   25.9770   78.2170 C.3    91  LEU91       0.0001
     80  CD2       42.0870   27.9680   78.2420 C.3    91  LEU91       0.0001
     81  N         39.1040   25.9750   81.1580 N.am   92  GLU92      -0.1966
     82  CA        38.0440   25.0450   81.5410 C.3    92  GLU92       0.1733
     83  C         38.6000   23.6210   81.5750 C.2    92  GLU92       0.2616
     84  O         39.3120   23.2030   80.6580 O.2    92  GLU92      -0.2715
     85  CB        36.8830   25.1400   80.5470 C.3    92  GLU92       0.0429
     86  CG        35.6460   24.3310   80.9200 C.3    92  GLU92       0.1163
     87  CD        34.5490   24.3990   79.8660 C.2    92  GLU92       0.3649
     88  OE1       34.7970   24.9350   78.7610 O.co2  92  GLU92      -0.2457
     89  OE2       33.4330   23.9120   80.1470 O.co2  92  GLU92      -0.2457
     90  N         38.2830   22.8900   82.6400 N.am   93  ILE93      -0.1963
     91  CA        38.8230   21.5450   82.8330 C.3    93  ILE93       0.1727
     92  C         38.1170   20.5050   81.9530 C.2    93  ILE93       0.2616
     93  O         36.8910   20.3610   81.9970 O.2    93  ILE93      -0.2715
     94  CB        38.8440   21.1280   84.3420 C.3    93  ILE93       0.0290
     95  CG1       39.6060   19.8140   84.5440 C.3    93  ILE93       0.0022
     96  CG2       37.4330   21.0570   84.9410 C.3    93  ILE93       0.0023
     97  CD1       41.1090   19.9620   84.5880 C.3    93  ILE93       0.0001
     98  N         38.9110   19.8070   81.1440 N.am   94  CYS94      -0.1968
     99  CA        38.4190   18.7400   80.2730 C.3    94  CYS94       0.1712
    100  C         39.0710   17.4100   80.6510 C.2    94  CYS94       0.2296
    101  O         40.1430   17.0590   80.1540 O.2    94  CYS94      -0.2864
    102  CB        38.6820   19.0850   78.8070 C.3    94  CYS94       0.0983
    103  SG        37.7690   20.5240   78.2230 S.3    94  CYS94      -0.0798
    104  N         40.1410   13.6800   78.3070 N.3    97  ARG97      -0.1231
    105  CA        41.1620   13.8010   77.2510 C.3    97  ARG97       0.1694
    106  C         40.6050   14.4060   75.9540 C.2    97  ARG97       0.2592
    107  O         39.7640   15.3100   76.0000 O.2    97  ARG97      -0.2718
    108  CB        41.8770   12.4610   77.0020 C.3    97  ARG97       0.0321
    109  CG        42.6450   11.9310   78.2150 C.3    97  ARG97       0.0489
    110  CD        43.7120   12.9160   78.6890 C.3    97  ARG97       0.2205
    111  NE        43.7530   13.0100   80.1490 N.pl3  97  ARG97      -0.0865
    112  CZ        44.7710   12.6210   80.9130 C.cat  97  ARG97       0.5346
    113  NH1       45.8690   12.1080   80.3690 N.pl3  97  ARG97       0.1354
    114  NH2       44.6940   12.7540   82.2300 N.pl3  97  ARG97       0.1354
    115  N         41.0730   13.9130   74.8100 N.am   98  SER98      -0.1952
    116  CA        40.6160   14.4210   73.5210 C.3    98  SER98       0.1924
    117  C         40.0500   13.3180   72.6340 C.2    98  SER98       0.2314
    118  O         40.1130   12.1330   72.9690 O.2    98  SER98      -0.2863
    119  CB        41.7390   15.1690   72.7950 C.3    98  SER98       0.2116
    120  OG        42.6100   14.2760   72.1250 O.3    98  SER98      -0.2180
    121  N         42.5020   10.4040   71.5280 N.3   101  GLU101     -0.1245
    122  CA        42.6720    9.2380   72.4000 C.3   101  GLU101      0.1567
    123  C         41.5020    8.2650   72.2960 C.2   101  GLU101      0.2260
    124  O         41.6820    7.0600   72.4620 O.2   101  GLU101     -0.2867
    125  CB        42.8750    9.6610   73.8580 C.3   101  GLU101      0.0388
    126  CG        44.2640   10.2090   74.1680 C.3   101  GLU101      0.1160
    127  CD        44.4680   11.6360   73.6780 C.2   101  GLU101      0.3649
    128  OE1       43.5120   12.4400   73.7490 O.co2 101  GLU101     -0.2457
    129  OE2       45.5900   11.9510   73.2270 O.co2 101  GLU101     -0.2457
    130  N         42.9610   15.8750   68.1820 N.3   141  GLY141     -0.1210
    131  CA        43.6940   16.2290   69.3950 C.3   141  GLY141      0.1956
    132  C         43.3610   17.5970   69.9640 C.2   141  GLY141      0.2611
    133  O         43.7580   17.9170   71.0870 O.2   141  GLY141     -0.2717
    134  N         42.6420   18.4070   69.1880 N.am  142  ASN142     -0.1974
    135  CA        42.2170   19.7370   69.6280 C.3   142  ASN142      0.1688
    136  C         40.7320   19.8150   69.9950 C.2   142  ASN142      0.2292
    137  O         40.2510   20.8550   70.4560 O.2   142  ASN142     -0.2864
    138  CB        42.5860   20.8000   68.5860 C.3   142  ASN142      0.1181
    139  CG        44.0610   21.1790   68.6270 C.2   142  ASN142      0.2629
    140  OD1       44.5960   21.7220   67.6640 O.2   142  ASN142     -0.2716
    141  ND2       44.7210   20.8970   69.7450 N.am  142  ASN142     -0.0877
    142  N         38.5190   18.6100   72.6510 N.3   144  PHE144     -0.1241
    143  CA        38.6050   18.0660   74.0020 C.3   144  PHE144      0.1605
    144  C         37.2560   17.5730   74.4990 C.2   144  PHE144      0.2264
    145  O         36.2120   17.9540   73.9720 O.2   144  PHE144     -0.2867
    146  CB        39.1860   19.1080   74.9640 C.3   144  PHE144      0.0534
    147  CG        40.6170   19.4640   74.6760 C.ar  144  PHE144     -0.0203
    148  CD1       41.6510   18.8430   75.3660 C.ar  144  PHE144     -0.0042
    149  CD2       40.9340   20.4140   73.7090 C.ar  144  PHE144     -0.0042
    150  CE1       42.9800   19.1620   75.0990 C.ar  144  PHE144     -0.0003
    151  CE2       42.2590   20.7420   73.4350 C.ar  144  PHE144     -0.0003
    152  CZ        43.2840   20.1160   74.1330 C.ar  144  PHE144     -0.0000
    153  N         43.0370   24.9660   71.7770 N.3   155  ASP155     -0.1239
    154  CA        44.2850   25.3660   71.1040 C.3   155  ASP155      0.1674
    155  C         44.0840   26.3370   69.9310 C.2   155  ASP155      0.2266
    156  O         43.9100   25.9230   68.7810 O.2   155  ASP155     -0.2867
    157  CB        45.1160   24.1470   70.6760 C.3   155  ASP155      0.1410
    158  CG        46.4110   24.5380   69.9720 C.2   155  ASP155      0.3668
    159  OD1       47.1870   25.3430   70.5370 O.co2 155  ASP155     -0.2456
    160  OD2       46.6490   24.0430   68.8480 O.co2 155  ASP155     -0.2456
@<TRIPOS>BOND
     1   140   139    2
     2   130   131    1
     3   138   139    1
     4   138   135    1
     5   139   141   am
     6   156   155    2
     7   160   158   ar
     8   134   135    1
     9   134   132   am
    10   131   132    1
    11   135   136    1
    12   155   154    1
    13   132   133    2
    14   158   159   ar
    15   158   157    1
    16   136   137    2
    17   157   154    1
    18   154   153    1
    19   121   122    1
    20    39    37   ar
    21    39    40   ar
    22   120   119    1
    23    37    35   ar
    24    27    26    1
    25    27    28    1
    26   123   122    1
    27   123   124    2
    28    40    38   ar
    29   122   125    1
    30   117   118    2
    31   117   116    1
    32   142   143    1
    33   119   116    1
    34    26    24   am
    35   129   127   ar
    36    28    29    2
    37    28    30   am
    38   151   149   ar
    39   151   152   ar
    40   116   115    1
    41    35    34    1
    42    35    36   ar
    43   127   128   ar
    44   127   126    1
    45    24    25    2
    46    24    23    1
    47    38    36   ar
    48   149   147   ar
    49   125   126    1
    50   145   144    2
    51    30    31    1
    52   143   144    1
    53   143   146    1
    54   152   150   ar
    55    34    31    1
    56    23    22    1
    57    66    67    1
    58   147   146    1
    59   147   148   ar
    60   115   106   am
    61    31    32    1
    62   150   148   ar
    63    72    70    1
    64    65    64    1
    65    22    15   am
    66    16    15    2
    67    70    67    1
    68    70    71    1
    69    69    68    2
    70    67    68    1
    71   106   107    2
    72   106   105    1
    73    32    41   am
    74    32    33    2
    75    15    14    1
    76    41    42    1
    77    64    63    1
    78   108   105    1
    79   108   109    1
    80    45    42    1
    81   105   104    1
    82    63    62    1
    83    42    43    1
    84    20    21    1
    85    20    19    1
    86    14    17    1
    87    14    13    1
    88    44    43    2
    89    18    19    1
    90    18    17    1
    91   109   110    1
    92    79    78    1
    93   103   102    1
    94    80    78    1
    95    13    11   am
    96   110   111    1
    97    88    87   ar
    98   102    99    1
    99    62    61    1
   100    78    77    1
   101    11    10    1
   102    11    12    2
   103    61    58    1
   104    87    89   ar
   105    87    86    1
   106    10     9    1
   107    77    74    1
   108   111   112    2
   109   101   100    2
   110    99   100    1
   111    99    98    1
   112   113   112    1
   113    85    86    1
   114    85    82    1
   115    84    83    2
   116     4     3    2
   117    50    51    1
   118    50    47    1
   119   112   114    1
   120    58    59    1
   121    58    57    1
   122    98    92   am
   123     9     3   am
   124    81    82    1
   125    81    75   am
   126    74    75    1
   127    74    73    1
   128    46    47    1
   129     3     2    1
   130    82    83    1
   131    59    60    2
   132    83    90   am
   133    47    48    1
   134    75    76    2
   135    92    93    2
   136    92    91    1
   137    56    53    1
   138    90    91    1
   139     5     2    1
   140     5     6    1
   141     2     1    1
   142    91    94    1
   143    55    54    2
   144    48    49    2
   145    54    53    1
   146     7     6    1
   147    53    52    1
   148     6     8    1
   149    94    95    1
   150    94    96    1
   151    95    97    1
