@<TRIPOS>MOLECULE
tmp/3d5xA00.pdb
 162 150 0 0 0
SMALL
GASTEIGER

@<TRIPOS>ATOM
      1  N         85.0960   48.4230   16.4950 N.3    22  LEU22      -0.1231
      2  CA        84.1100   47.3960   16.1490 C.3    22  LEU22       0.1693
      3  C         82.7520   47.9790   15.7670 C.2    22  LEU22       0.2593
      4  O         81.9880   47.3480   15.0350 O.2    22  LEU22      -0.2718
      5  CB        83.9360   46.3960   17.3000 C.3    22  LEU22       0.0284
      6  CG        85.1260   45.5490   17.7670 C.3    22  LEU22       0.0019
      7  CD1       84.7300   44.7370   18.9880 C.3    22  LEU22       0.0001
      8  CD2       85.6550   44.6310   16.6680 C.3    22  LEU22       0.0001
      9  N         82.4600   49.1770   16.2660 N.am   23  GLY23      -0.1942
     10  CA        81.1840   49.8370   16.0090 C.3    23  GLY23       0.2014
     11  C         80.6680   50.5950   17.2170 C.2    23  GLY23       0.2639
     12  O         81.2670   50.5460   18.2940 O.2    23  GLY23      -0.2714
     13  N         79.5510   51.2960   17.0330 N.am   24  LYS24      -0.1963
     14  CA        78.9350   52.0890   18.0990 C.3    24  LYS24       0.1728
     15  C         77.4100   51.9340   18.1510 C.2    24  LYS24       0.2616
     16  O         76.8060   51.3370   17.2570 O.2    24  LYS24      -0.2715
     17  CB        79.3280   53.5700   17.9760 C.3    24  LYS24       0.0311
     18  CG        79.0190   54.2160   16.6270 C.3    24  LYS24       0.0038
     19  CD        79.4030   55.6910   16.6250 C.3    24  LYS24       0.0206
     20  CE        79.4350   56.2670   15.2140 C.3    24  LYS24       0.1093
     21  NZ        80.6280   55.8080   14.4430 N.3    24  LYS24      -0.1314
     22  N         76.8030   52.4700   19.2090 N.am   25  GLY25      -0.1955
     23  CA        75.3540   52.4190   19.3910 C.3    25  GLY25       0.1869
     24  C         74.9100   53.2450   20.5820 C.2    25  GLY25       0.2309
     25  O         75.2450   52.9320   21.7260 O.2    25  GLY25      -0.2863
     26  N         77.7130   55.1630   22.4650 N.3    28  ALA28      -0.1245
     27  CA        78.6350   54.2850   23.1800 C.3    28  ALA28       0.1562
     28  C         79.4870   53.5120   22.1770 C.2    28  ALA28       0.2260
     29  O         78.9740   52.6910   21.4160 O.2    28  ALA28      -0.2867
     30  CB        77.8720   53.3360   24.0920 C.3    28  ALA28       0.0290
     31  N         82.5200   50.9270   20.8140 N.3    30  CYS30      -0.1235
     32  CA        83.0400   49.6110   21.1710 C.3    30  CYS30       0.1677
     33  C         84.3150   49.2640   20.4090 C.2    30  CYS30       0.2270
     34  O         84.4180   49.5100   19.2060 O.2    30  CYS30      -0.2867
     35  CB        81.9840   48.5380   20.9330 C.3    30  CYS30       0.0956
     36  SG        82.4230   46.9260   21.5980 S.3    30  CYS30      -0.0801
     37  N         85.4730   42.2600   23.6860 N.3    43  ALA43      -0.1245
     38  CA        84.8170   43.4380   23.1550 C.3    43  ALA43       0.1562
     39  C         84.6880   44.4800   24.2620 C.2    43  ALA43       0.2260
     40  O         83.8840   44.3260   25.1850 O.2    43  ALA43      -0.2867
     41  CB        83.4640   43.0720   22.5880 C.3    43  ALA43       0.0290
     42  N         83.4180   47.7140   25.6610 N.3    45  LYS45      -0.1245
     43  CA        82.4030   48.7510   25.5340 C.3    45  LYS45       0.1561
     44  C         82.8280   49.9760   26.3340 C.2    45  LYS45       0.2260
     45  O         82.9620   49.9140   27.5570 O.2    45  LYS45      -0.2867
     46  CB        81.0320   48.2390   25.9920 C.3    45  LYS45       0.0271
     47  CG        79.9020   49.2500   25.8300 C.3    45  LYS45       0.0035
     48  CD        78.5310   48.5880   25.8480 C.3    45  LYS45       0.0206
     49  CE        77.4310   49.6260   25.6790 C.3    45  LYS45       0.1093
     50  NZ        76.1220   49.0350   25.2780 N.3    45  LYS45      -0.1314
     51  N         71.4800   47.4160   34.2890 N.3    64  GLU64      -0.1245
     52  CA        71.9270   46.6740   33.1090 C.3    64  GLU64       0.1567
     53  C         73.1700   45.8370   33.4130 C.2    64  GLU64       0.2260
     54  O         73.2320   44.6610   33.0530 O.2    64  GLU64      -0.2867
     55  CB        72.2030   47.6370   31.9460 C.3    64  GLU64       0.0388
     56  CG        72.6750   46.9660   30.6530 C.3    64  GLU64       0.1160
     57  CD        73.2600   47.9450   29.6460 C.2    64  GLU64       0.3649
     58  OE1       72.7310   49.0700   29.5120 O.co2  64  GLU64      -0.2457
     59  OE2       74.2510   47.5820   28.9790 O.co2  64  GLU64      -0.2457
     60  N         73.3520   41.6530   33.7620 N.3    68  HIS68      -0.1241
     61  CA        74.2870   40.9720   32.8680 C.3    68  HIS68       0.1621
     62  C         75.3820   40.2340   33.6410 C.2    68  HIS68       0.2264
     63  O         75.8380   39.1710   33.2130 O.2    68  HIS68      -0.2867
     64  CB        74.9110   41.9670   31.8830 C.3    68  HIS68       0.0745
     65  CG        75.3320   41.3550   30.5810 C.ar   68  HIS68       0.0817
     66  ND1       75.3420   42.0610   29.3970 N.ar   68  HIS68      -0.2268
     67  CD2       75.7460   40.1020   30.2720 C.ar   68  HIS68       0.1154
     68  CE1       75.7540   41.2740   28.4190 C.ar   68  HIS68       0.1986
     69  NE2       76.0040   40.0800   28.9240 N.ar   68  HIS68      -0.2212
     70  N         75.6450   36.7690   25.5860 N.3    77  VAL77      -0.1245
     71  CA        76.9500   37.4250   25.5130 C.3    77  VAL77       0.1561
     72  C         77.6150   37.3860   26.8870 C.2    77  VAL77       0.2260
     73  O         77.0640   37.8880   27.8690 O.2    77  VAL77      -0.2867
     74  CB        76.8450   38.8870   24.9930 C.3    77  VAL77       0.0252
     75  CG1       78.1980   39.5850   25.0530 C.3    77  VAL77       0.0019
     76  CG2       76.3030   38.9170   23.5710 C.3    77  VAL77       0.0019
     77  N         83.2050   42.4720   27.4550 N.3    93  LEU93      -0.1231
     78  CA        82.2490   41.4690   26.9890 C.3    93  LEU93       0.1693
     79  C         82.8830   40.4420   26.0490 C.2    93  LEU93       0.2592
     80  O         83.9600   40.6780   25.4960 O.2    93  LEU93      -0.2718
     81  CB        81.0710   42.1480   26.2830 C.3    93  LEU93       0.0284
     82  CG        80.2010   43.1360   27.0620 C.3    93  LEU93       0.0019
     83  CD1       79.4530   44.0390   26.0930 C.3    93  LEU93       0.0001
     84  CD2       79.2320   42.4240   28.0040 C.3    93  LEU93       0.0001
     85  N         82.2020   39.3040   25.8850 N.am   94  GLU94      -0.1966
     86  CA        82.5660   38.2790   24.9030 C.3    94  GLU94       0.1733
     87  C         82.5270   38.9020   23.5100 C.2    94  GLU94       0.2616
     88  O         81.6030   39.6540   23.1960 O.2    94  GLU94      -0.2715
     89  CB        81.5840   37.1040   24.9890 C.3    94  GLU94       0.0429
     90  CG        81.9790   35.8490   24.2050 C.3    94  GLU94       0.1163
     91  CD        80.8940   34.7710   24.2090 C.2    94  GLU94       0.3649
     92  OE1       79.7910   35.0170   24.7460 O.co2  94  GLU94      -0.2457
     93  OE2       81.1410   33.6710   23.6680 O.co2  94  GLU94      -0.2457
     94  N         83.5280   38.6080   22.6850 N.am   95  ILE95      -0.1963
     95  CA        83.6090   39.2350   21.3610 C.3    95  ILE95       0.1727
     96  C         82.8510   38.4630   20.2760 C.2    95  ILE95       0.2616
     97  O         83.0230   37.2520   20.1190 O.2    95  ILE95      -0.2715
     98  CB        85.0760   39.5510   20.9260 C.3    95  ILE95       0.0290
     99  CG1       85.0730   40.4570   19.6870 C.3    95  ILE95       0.0022
    100  CG2       85.8960   38.2650   20.7160 C.3    95  ILE95       0.0023
    101  CD1       86.4040   41.0940   19.3590 C.3    95  ILE95       0.0001
    102  N         82.0050   39.1800   19.5430 N.am   96  CYS96      -0.1968
    103  CA        81.2700   38.6050   18.4210 C.3    96  CYS96       0.1712
    104  C         81.6670   39.3010   17.1190 C.2    96  CYS96       0.2296
    105  O         81.1670   40.3820   16.7930 O.2    96  CYS96      -0.2864
    106  CB        79.7660   38.6860   18.6710 C.3    96  CYS96       0.0983
    107  SG        79.2600   37.8180   20.1670 S.3    96  CYS96      -0.0798
    108  N         79.0830   40.4560   13.4770 N.3    99  ARG99      -0.1245
    109  CA        77.9330   41.3680   13.5690 C.3    99  ARG99       0.1563
    110  C         76.7050   40.6640   14.1650 C.2    99  ARG99       0.2260
    111  O         76.8500   39.7440   14.9710 O.2    99  ARG99      -0.2867
    112  CB        77.6210   42.0030   12.2000 C.3    99  ARG99       0.0307
    113  CG        78.8410   42.5640   11.4520 C.3    99  ARG99       0.0489
    114  CD        79.2240   43.9610   11.9290 C.3    99  ARG99       0.2205
    115  NE        78.5210   45.0100   11.1890 N.pl3  99  ARG99      -0.0865
    116  CZ        78.5030   46.2970   11.5310 C.cat  99  ARG99       0.5346
    117  NH1       79.1440   46.7180   12.6170 N.pl3  99  ARG99       0.1354
    118  NH2       77.8350   47.1680   10.7860 N.pl3  99  ARG99       0.1354
    119  N         65.5570   41.6340   19.2900 N.3   141  LYS141     -0.1245
    120  CA        65.5170   42.0120   17.8810 C.3   141  LYS141      0.1561
    121  C         66.7240   41.4380   17.1420 C.2   141  LYS141      0.2260
    122  O         67.6920   40.9920   17.7690 O.2   141  LYS141     -0.2867
    123  CB        65.4660   43.5380   17.7320 C.3   141  LYS141      0.0271
    124  CG        66.6570   44.2720   18.3230 C.3   141  LYS141      0.0035
    125  CD        66.4360   45.7720   18.3320 C.3   141  LYS141      0.0206
    126  CE        67.6410   46.4930   18.9160 C.3   141  LYS141      0.1093
    127  NZ        67.4860   47.9730   18.8520 N.3   141  LYS141     -0.1314
    128  N         69.0620   42.8810   15.5930 N.3   143  GLY143     -0.1210
    129  CA        70.2640   43.6350   15.9420 C.3   143  GLY143      0.1956
    130  C         70.8820   43.2510   17.2750 C.2   143  GLY143      0.2611
    131  O         72.0350   43.5930   17.5440 O.2   143  GLY143     -0.2717
    132  N         70.1140   42.5460   18.1080 N.am  144  ASN144     -0.1974
    133  CA        70.5840   42.0870   19.4200 C.3   144  ASN144      0.1688
    134  C         71.0650   40.6400   19.4390 C.2   144  ASN144      0.2292
    135  O         71.6810   40.2000   20.4110 O.2   144  ASN144     -0.2864
    136  CB        69.5010   42.2870   20.4840 C.3   144  ASN144      0.1181
    137  CG        69.3810   43.7290   20.9370 C.2   144  ASN144      0.2629
    138  OD1       68.3780   44.1150   21.5290 O.2   144  ASN144     -0.2716
    139  ND2       70.4040   44.5320   20.6630 N.am  144  ASN144     -0.0877
    140  N         73.6260   38.6430   18.3190 N.3   146  PHE146     -0.1241
    141  CA        74.9820   38.7310   17.7780 C.3   146  PHE146      0.1605
    142  C         75.5340   37.3720   17.3670 C.2   146  PHE146      0.2264
    143  O         75.0950   36.3350   17.8670 O.2   146  PHE146     -0.2867
    144  CB        75.9180   39.4170   18.7790 C.3   146  PHE146      0.0534
    145  CG        75.4590   40.7870   19.1900 C.ar  146  PHE146     -0.0203
    146  CD1       75.6110   41.8720   18.3320 C.ar  146  PHE146     -0.0042
    147  CD2       74.8660   40.9920   20.4320 C.ar  146  PHE146     -0.0042
    148  CE1       75.1830   43.1440   18.7050 C.ar  146  PHE146     -0.0003
    149  CE2       74.4340   42.2620   20.8140 C.ar  146  PHE146     -0.0003
    150  CZ        74.5950   43.3390   19.9490 C.ar  146  PHE146     -0.0000
    151  N         72.4960   39.8580   23.4460 N.3   156  GLY156     -0.1210
    152  CA        73.1280   40.9690   24.1510 C.3   156  GLY156      0.1956
    153  C         72.1950   42.1530   24.3030 C.2   156  GLY156      0.2611
    154  O         70.9960   42.0450   24.0210 O.2   156  GLY156     -0.2717
    155  N         72.7570   43.2800   24.7490 N.am  157  ASP157     -0.1973
    156  CA        72.0190   44.5280   24.9860 C.3   157  ASP157      0.1709
    157  C         70.9090   44.3430   26.0210 C.2   157  ASP157      0.2293
    158  O         69.7490   44.1200   25.6710 O.2   157  ASP157     -0.2864
    159  CB        71.4640   45.0990   23.6690 C.3   157  ASP157      0.1436
    160  CG        70.9940   46.5440   23.7930 C.2   157  ASP157      0.3671
    161  OD1       70.2800   46.8860   24.7640 O.co2 157  ASP157     -0.2456
    162  OD2       71.3320   47.3420   22.8920 O.co2 157  ASP157     -0.2456
@<TRIPOS>BOND
     1   118   116    1
     2   115   116    2
     3   115   114    1
     4   113   114    1
     5   113   112    1
     6   116   117    1
     7   112   109    1
     8   108   109    1
     9   109   110    1
    10   110   111    2
    11    21    20    1
    12     4     3    2
    13    20    19    1
    14   128   129    1
    15     3     2    1
    16     3     9   am
    17   129   130    1
    18    10     9    1
    19    10    11    1
    20     2     1    1
    21     2     5    1
    22    19    18    1
    23    18    17    1
    24     8     6    1
    25   105   104    2
    26    13    11   am
    27    13    14    1
    28   104   103    1
    29   121   122    2
    30   121   120    1
    31    11    12    2
    32    16    15    2
    33   130   131    2
    34   130   132   am
    35     5     6    1
    36   142   141    1
    37   142   143    2
    38   123   120    1
    39   123   124    1
    40     6     7    1
    41   141   140    1
    42   141   144    1
    43   120   119    1
    44    17    14    1
    45    14    15    1
    46   132   133    1
    47    15    22   am
    48   124   125    1
    49   125   126    1
    50   146   148   ar
    51   146   145   ar
    52   103   106    1
    53   103   102    1
    54   106   107    1
    55   148   150   ar
    56   144   145    1
    57   127   126    1
    58   145   147   ar
    59    34    33    2
    60    22    23    1
    61   101    99    1
    62    23    24    1
    63   133   134    1
    64   133   136    1
    65   134   135    2
    66   102    96   am
    67    99    98    1
    68   150   149   ar
    69    97    96    2
    70    96    95    1
    71    33    32    1
    72   147   149   ar
    73   136   137    1
    74    24    25    2
    75   139   137   am
    76   100    98    1
    77    31    32    1
    78    98    95    1
    79    35    32    1
    80    35    36    1
    81   137   138    2
    82    95    94    1
    83    29    28    2
    84    28    27    1
    85    26    27    1
    86    41    38    1
    87    94    87   am
    88   162   160   ar
    89    38    37    1
    90    38    39    1
    91    27    30    1
    92    88    87    2
    93   151   152    1
    94    87    86    1
    95    76    74    1
    96    93    91   ar
    97   159   160    1
    98   159   156    1
    99   160   161   ar
   100   154   153    2
   101   152   153    1
   102    90    91    1
   103    90    89    1
   104    91    92   ar
   105    39    40    2
   106   153   155   am
   107   155   156    1
   108    86    89    1
   109    86    85    1
   110   156   157    1
   111    74    75    1
   112    74    71    1
   113    50    49    1
   114    80    79    2
   115    71    70    1
   116    71    72    1
   117    43    42    1
   118    43    46    1
   119    43    44    1
   120   158   157    2
   121    49    48    1
   122    47    48    1
   123    47    46    1
   124    85    79   am
   125    79    78    1
   126    83    82    1
   127    81    78    1
   128    81    82    1
   129    44    45    2
   130    72    73    2
   131    78    77    1
   132    82    84    1
   133    68    69   ar
   134    68    66   ar
   135    69    67   ar
   136    59    57   ar
   137    66    65   ar
   138    58    57   ar
   139    57    56    1
   140    67    65   ar
   141    65    64    1
   142    56    55    1
   143    64    61    1
   144    55    52    1
   145    61    62    1
   146    61    60    1
   147    54    53    2
   148    52    53    1
   149    52    51    1
   150    63    62    2
