@<TRIPOS>MOLECULE
tmp/3d5zA00.pdb
 193 193 0 0 0
SMALL
GASTEIGER

@<TRIPOS>ATOM
      1  N        -25.0360   16.1610   13.2320 N.3    25  HIS25      -0.1226
      2  CA       -24.6530   14.9310   12.5520 C.3    25  HIS25       0.1752
      3  C        -23.6440   14.2230   13.4550 C.2    25  HIS25       0.2596
      4  O        -22.6210   14.8080   13.8090 O.2    25  HIS25      -0.2718
      5  CB       -24.0160   15.2640   11.1950 C.3    25  HIS25       0.0759
      6  CG       -24.1270   14.1650   10.1810 C.ar   25  HIS25       0.0818
      7  ND1      -23.2060   13.1430   10.0790 N.ar   25  HIS25      -0.2268
      8  CD2      -25.0630   13.9210    9.2330 C.ar   25  HIS25       0.1154
      9  CE1      -23.5720   12.3170    9.1130 C.ar   25  HIS25       0.1986
     10  NE2      -24.6960   12.7660    8.5840 N.ar   25  HIS25      -0.2212
     11  N        -23.9460   12.9830   13.8390 N.am   26  ASP26      -0.1974
     12  CA       -23.0600   12.1890   14.7010 C.3    26  ASP26       0.1709
     13  C        -22.9100   12.8300   16.0730 C.2    26  ASP26       0.2293
     14  O        -21.7950   13.0880   16.5300 O.2    26  ASP26      -0.2864
     15  CB       -21.6810   12.0720   14.0650 C.3    26  ASP26       0.1436
     16  CG       -21.7520   11.7110   12.6010 C.2    26  ASP26       0.3671
     17  OD1      -22.4440   10.7270   12.2700 O.co2  26  ASP26      -0.2456
     18  OD2      -21.1170   12.4160   11.7940 O.co2  26  ASP26      -0.2456
     19  N        -20.2120   16.3690   14.5470 N.3    41  THR41      -0.1218
     20  CA       -19.3750   16.5620   13.3640 C.3    41  THR41       0.1862
     21  C        -19.4770   17.9730   12.8020 C.2    41  THR41       0.2287
     22  O        -20.5680   18.5360   12.7130 O.2    41  THR41      -0.2866
     23  CB       -19.7680   15.5610   12.2620 C.3    41  THR41       0.1770
     24  OG1      -19.4960   14.2330   12.7160 O.3    41  THR41      -0.2211
     25  CG2      -18.9830   15.8300   10.9790 C.3    41  THR41       0.0375
     26  N        -14.8450   14.6580   12.6000 N.3    83  TRP83      -0.1227
     27  CA       -16.0170   13.7960   12.6840 C.3    83  TRP83       0.1737
     28  C        -16.2710   13.0190   13.9650 C.2    83  TRP83       0.2595
     29  O        -15.3580   12.6820   14.7170 O.2    83  TRP83      -0.2718
     30  CB       -15.9960   12.7420   11.5810 C.3    83  TRP83       0.0564
     31  CG       -15.7470   13.2010   10.1810 C.ar   83  TRP83       0.0003
     32  CD1      -15.7110   14.4820    9.7120 C.ar   83  TRP83       0.0946
     33  CD2      -15.5190   12.3520    9.0550 C.ar   83  TRP83       0.0152
     34  NE1      -15.4750   14.4820    8.3540 N.ar   83  TRP83      -0.2442
     35  CE2      -15.3540   13.1840    7.9280 C.ar   83  TRP83       0.0810
     36  CE3      -15.4400   10.9600    8.8900 C.ar   83  TRP83       0.0012
     37  CZ2      -15.1120   12.6720    6.6490 C.ar   83  TRP83       0.0191
     38  CZ3      -15.2000   10.4500    7.6190 C.ar   83  TRP83       0.0001
     39  CH2      -15.0390   11.3060    6.5140 C.ar   83  TRP83       0.0015
     40  N        -17.5510   12.7210   14.1570 N.am   84  ALA84      -0.1980
     41  CA       -18.0580   11.9000   15.2420 C.3    84  ALA84       0.1597
     42  C        -17.3250   11.9510   16.5690 C.2    84  ALA84       0.2287
     43  O        -16.6050   11.0180   16.9250 O.2    84  ALA84      -0.2864
     44  CB       -18.1190   10.4650   14.7610 C.3    84  ALA84       0.0319
     45  N        -10.4150   12.4420    8.9510 N.3   101  SER101     -0.1202
     46  CA       -10.3780   11.5420    7.8040 C.3   101  SER101      0.2020
     47  C        -10.8680   12.2310    6.5310 C.2   101  SER101      0.2619
     48  O        -11.1020   13.4390    6.5150 O.2   101  SER101     -0.2717
     49  CB       -11.2660   10.3240    8.1040 C.3   101  SER101      0.2103
     50  OG       -11.2550    9.3660    7.0550 O.3   101  SER101     -0.2182
     51  N        -10.9900   11.4500    5.4620 N.am  102  THR102     -0.1938
     52  CA       -11.4960   11.9370    4.1850 C.3   102  THR102      0.2028
     53  C        -12.5510   10.9340    3.7290 C.2   102  THR102      0.2642
     54  O        -12.3180    9.7230    3.7250 O.2   102  THR102     -0.2714
     55  CB       -10.3910   12.0430    3.1140 C.3   102  THR102      0.1808
     56  OG1       -9.6910   10.7960    3.0150 O.3   102  THR102     -0.2208
     57  CG2       -9.4230   13.1560    3.4670 C.3   102  THR102      0.0379
     58  N        -13.7170   11.4490    3.3690 N.am  103  PHE103     -0.1959
     59  CA       -14.8370   10.6250    2.9410 C.3   103  PHE103      0.1771
     60  C        -14.4520    9.5270    1.9400 C.2   103  PHE103      0.2620
     61  O        -13.8110    9.7920    0.9230 O.2   103  PHE103     -0.2715
     62  CB       -15.9150   11.5350    2.3460 C.3   103  PHE103      0.0574
     63  CG       -17.2650   10.8970    2.2370 C.ar  103  PHE103     -0.0200
     64  CD1      -17.8960   10.3730    3.3590 C.ar  103  PHE103     -0.0042
     65  CD2      -17.9210   10.8440    1.0120 C.ar  103  PHE103     -0.0042
     66  CE1      -19.1640    9.8040    3.2600 C.ar  103  PHE103     -0.0003
     67  CE2      -19.1890   10.2770    0.9040 C.ar  103  PHE103     -0.0003
     68  CZ       -19.8110    9.7570    2.0280 C.ar  103  PHE103     -0.0000
     69  N        -14.8370    8.2920    2.2500 N.am  104  GLY104     -0.1940
     70  CA       -14.5500    7.1740    1.3670 C.3   104  GLY104      0.2014
     71  C        -13.1940    6.5050    1.5160 C.2   104  GLY104      0.2638
     72  O        -12.9360    5.4870    0.8720 O.2   104  GLY104     -0.2714
     73  N        -12.3290    7.0570    2.3620 N.am  105  LYS105     -0.1977
     74  CA       -10.9960    6.4930    2.5580 C.3   105  LYS105      0.1596
     75  C        -10.7710    6.0430    3.9960 C.2   105  LYS105      0.2287
     76  O        -11.4580    6.4990    4.9160 O.2   105  LYS105     -0.2864
     77  CB        -9.9300    7.5300    2.1820 C.3   105  LYS105      0.0298
     78  CG       -10.0480    8.0650    0.7560 C.3   105  LYS105      0.0038
     79  CD        -9.8650    6.9580   -0.2720 C.3   105  LYS105      0.0206
     80  CE       -10.0530    7.4680   -1.7020 C.3   105  LYS105      0.1093
     81  NZ        -9.0460    8.4950   -2.0740 N.3   105  LYS105     -0.1314
     82  N        -11.0390    0.9750    9.6910 N.3   143  ASN143     -0.1240
     83  CA       -11.0210    2.4240    9.5240 C.3   143  ASN143      0.1653
     84  C        -11.0870    3.0830   10.8940 C.2   143  ASN143      0.2266
     85  O        -12.0090    2.8350   11.6660 O.2   143  ASN143     -0.2867
     86  CB       -12.2000    2.8700    8.6550 C.3   143  ASN143      0.1155
     87  CG       -12.1170    4.3300    8.2670 C.2   143  ASN143      0.2627
     88  OD1      -11.0670    4.9620    8.4020 O.2   143  ASN143     -0.2716
     89  ND2      -13.2220    4.8740    7.7680 N.am  143  ASN143     -0.0877
     90  N        -12.1350    5.7290   12.7000 N.3   145  ILE145     -0.1231
     91  CA       -13.0510    6.8470   12.9020 C.3   145  ILE145      0.1692
     92  C        -14.1900    6.3370   13.7860 C.2   145  ILE145      0.2592
     93  O        -14.2530    5.1460   14.0900 O.2   145  ILE145     -0.2718
     94  CB       -13.6620    7.3840   11.5710 C.3   145  ILE145      0.0266
     95  CG1      -14.5470    6.3120   10.9200 C.3   145  ILE145      0.0019
     96  CG2      -12.5530    7.8100   10.6120 C.3   145  ILE145      0.0020
     97  CD1      -15.3100    6.8390    9.6960 C.3   145  ILE145      0.0001
     98  N        -15.0750    7.2390   14.2040 N.am  146  ASP146     -0.1974
     99  CA       -16.2210    6.8840   15.0540 C.3   146  ASP146      0.1709
    100  C        -15.8700    6.3010   16.4220 C.2   146  ASP146      0.2293
    101  O        -16.3720    5.2430   16.8050 O.2   146  ASP146     -0.2864
    102  CB       -17.1420    5.8990   14.3230 C.3   146  ASP146      0.1436
    103  CG       -17.8280    6.5220   13.1270 C.2   146  ASP146      0.3671
    104  OD1      -17.7740    7.7640   12.9850 O.co2 146  ASP146     -0.2456
    105  OD2      -18.4300    5.7700   12.3390 O.co2 146  ASP146     -0.2456
    106  N        -15.7030    1.8180   10.8850 N.3   163  SER163     -0.1202
    107  CA       -16.6720    2.1390    9.8580 C.3   163  SER163      0.2020
    108  C        -16.1950    1.4270    8.6020 C.2   163  SER163      0.2619
    109  O        -15.1020    1.6990    8.1020 O.2   163  SER163     -0.2717
    110  CB       -16.7200    3.6490    9.6190 C.3   163  SER163      0.2103
    111  OG       -17.6220    3.9630    8.5730 O.3   163  SER163     -0.2182
    112  N        -17.0170    0.5010    8.1210 N.am  164  PHE164     -0.1961
    113  CA       -16.7170   -0.2900    6.9390 C.3   164  PHE164      0.1771
    114  C        -15.4540   -1.1360    7.0680 C.2   164  PHE164      0.2619
    115  O        -15.0130   -1.4160    8.1790 O.2   164  PHE164     -0.2715
    116  CB       -16.6800    0.6150    5.7080 C.3   164  PHE164      0.0574
    117  CG       -18.0410    1.1250    5.3150 C.ar  164  PHE164     -0.0200
    118  CD1      -18.6780    2.1050    6.0720 C.ar  164  PHE164     -0.0042
    119  CD2      -18.7110    0.5840    4.2210 C.ar  164  PHE164     -0.0042
    120  CE1      -19.9660    2.5400    5.7470 C.ar  164  PHE164     -0.0003
    121  CE2      -19.9970    1.0110    3.8870 C.ar  164  PHE164     -0.0003
    122  CZ       -20.6260    1.9900    4.6510 C.ar  164  PHE164     -0.0000
    123  N        -14.8770   -1.5480    5.9420 N.am  165  TRP165     -0.1974
    124  CA       -13.7010   -2.4150    5.9760 C.3   165  TRP165      0.1640
    125  C        -14.0300   -3.6640    6.8100 C.2   165  TRP165      0.2290
    126  O        -15.0870   -4.2700    6.6010 O.2   165  TRP165     -0.2864
    127  CB       -12.4870   -1.6500    6.5220 C.3   165  TRP165      0.0576
    128  CG       -11.8250   -0.8270    5.4430 C.ar  165  TRP165      0.0006
    129  CD1      -10.8170   -1.2290    4.6080 C.ar  165  TRP165      0.0946
    130  CD2      -12.2230    0.4750    4.9870 C.ar  165  TRP165      0.0152
    131  NE1      -10.5740   -0.2650    3.6570 N.ar  165  TRP165     -0.2442
    132  CE2      -11.4220    0.7900    3.8670 C.ar  165  TRP165      0.0810
    133  CE3      -13.1850    1.4020    5.4130 C.ar  165  TRP165      0.0012
    134  CZ2      -11.5550    1.9960    3.1650 C.ar  165  TRP165      0.0191
    135  CZ3      -13.3170    2.6020    4.7160 C.ar  165  TRP165      0.0001
    136  CH2      -12.5060    2.8860    3.6050 C.ar  165  TRP165      0.0015
    137  N        -19.9660   -3.9520    0.2590 N.3   196  PRO196     -0.2116
    138  CA       -19.2510   -3.2430    1.3230 C.3   196  PRO196      0.1372
    139  C        -19.8290   -3.6390    2.6700 C.2   196  PRO196      0.2244
    140  O        -20.9460   -4.1560    2.7450 O.2   196  PRO196     -0.2868
    141  CB       -19.5020   -1.7770    0.9910 C.3   196  PRO196      0.0268
    142  CG       -20.8780   -1.8120    0.4150 C.3   196  PRO196      0.0207
    143  CD       -20.8040   -3.0170   -0.5120 C.3   196  PRO196      0.0892
    144  N        -21.0890    0.9170   11.3030 N.3   200  ALA200     -0.1245
    145  CA       -20.2330    1.9630   11.8360 C.3   200  ALA200      0.1562
    146  C        -20.8370    2.5700   13.0930 C.2   200  ALA200      0.2260
    147  O        -21.8550    2.0970   13.6010 O.2   200  ALA200     -0.2867
    148  CB       -20.0420    3.0610   10.7790 C.3   200  ALA200      0.0290
    149  N        -26.2320    3.2600    5.0190 N.3   219  PHE219     -0.1227
    150  CA       -25.6630    4.5570    4.6540 C.3   219  PHE219      0.1736
    151  C        -26.1060    5.9130    5.1830 C.2   219  PHE219      0.2596
    152  O        -27.2970    6.2300    5.2580 O.2   219  PHE219     -0.2718
    153  CB       -25.6510    4.6340    3.1250 C.3   219  PHE219      0.0547
    154  CG       -25.1820    3.3720    2.4700 C.ar  219  PHE219     -0.0202
    155  CD1      -23.9020    2.8850    2.7080 C.ar  219  PHE219     -0.0042
    156  CD2      -26.0310    2.6420    1.6460 C.ar  219  PHE219     -0.0042
    157  CE1      -23.4750    1.6900    2.1400 C.ar  219  PHE219     -0.0003
    158  CE2      -25.6120    1.4420    1.0710 C.ar  219  PHE219     -0.0003
    159  CZ       -24.3320    0.9660    1.3210 C.ar  219  PHE219     -0.0000
    160  N        -25.0960    6.7250    5.4890 N.am  220  CYS220     -0.1956
    161  CA       -25.2650    8.0980    5.9700 C.3   220  CYS220      0.1843
    162  C        -25.0340    9.0110    4.7940 C.2   220  CYS220      0.2625
    163  O        -24.8780    8.5840    3.6530 O.2   220  CYS220     -0.2714
    164  CB       -24.1460    8.4880    6.9360 C.3   220  CYS220      0.0997
    165  SG       -22.5450    8.8130    6.0690 S.3   220  CYS220     -0.0797
    166  N        -25.0030   10.2920    5.1280 N.am  221  CYS221     -0.1968
    167  CA       -24.6090   11.3280    4.2110 C.3   221  CYS221      0.1712
    168  C        -25.1960   11.4160    2.8020 C.2   221  CYS221      0.2296
    169  O        -24.5030   11.8530    1.8760 O.2   221  CYS221     -0.2864
    170  CB       -23.0860   11.2250    4.1530 C.3   221  CYS221      0.0983
    171  SG       -22.3710   10.8340    5.8040 S.3   221  CYS221     -0.0798
    172  N        -29.4970    4.7940    6.7590 N.3   228  TYR228     -0.1241
    173  CA       -29.0660    4.4800    8.1180 C.3   228  TYR228      0.1605
    174  C        -30.1690    3.7860    8.9170 C.2   228  TYR228      0.2264
    175  O        -31.3540    4.0850    8.7540 O.2   228  TYR228     -0.2867
    176  CB       -28.6780    5.7690    8.8630 C.3   228  TYR228      0.0534
    177  CG       -27.1940    5.9920    9.1000 C.ar  228  TYR228     -0.0201
    178  CD1      -26.2530    4.9940    8.8390 C.ar  228  TYR228     -0.0009
    179  CD2      -26.7360    7.2030    9.6160 C.ar  228  TYR228     -0.0009
    180  CE1      -24.8940    5.2000    9.0880 C.ar  228  TYR228      0.0417
    181  CE2      -25.3870    7.4190    9.8690 C.ar  228  TYR228      0.0417
    182  CZ       -24.4710    6.4160    9.6020 C.ar  228  TYR228      0.1957
    183  OH       -23.1350    6.6470    9.8360 O.3   228  TYR228     -0.2866
    184  N        -25.9940    6.9050   13.8990 N.3   270  HIS270     -0.1241
    185  CA       -24.9070    7.3640   14.7500 C.3   270  HIS270      0.1621
    186  C        -25.4950    7.7760   16.0940 C.2   270  HIS270      0.2264
    187  O        -25.5600    8.9610   16.4290 O.2   270  HIS270     -0.2867
    188  CB       -24.1620    8.5320   14.1050 C.3   270  HIS270      0.0745
    189  CG       -22.7000    8.5440   14.4180 C.ar  270  HIS270      0.0817
    190  ND1      -21.7330    8.2860   13.4700 N.ar  270  HIS270     -0.2268
    191  CD2      -22.0430    8.7150   15.5900 C.ar  270  HIS270      0.1154
    192  CE1      -20.5430    8.2960   14.0440 C.ar  270  HIS270      0.1986
    193  NE2      -20.7040    8.5530   15.3310 N.ar  270  HIS270     -0.2212
@<TRIPOS>BOND
     1    81    80    1
     2    80    79    1
     3   143   137    1
     4   143   142    1
     5    79    78    1
     6   137   138    1
     7   142   141    1
     8    78    77    1
     9    72    71    2
    10    67    65   ar
    11    67    68   ar
    12    61    60    2
    13   141   138    1
    14    65    63   ar
    15   158   159   ar
    16   158   156   ar
    17   159   157   ar
    18   138   139    1
    19    70    71    1
    20    70    69    1
    21    71    73   am
    22   156   154   ar
    23   169   168    2
    24    60    69   am
    25    60    59    1
    26    68    66   ar
    27   157   155   ar
    28    77    74    1
    29    63    62    1
    30    63    64   ar
    31    62    59    1
    32    73    74    1
    33   154   155   ar
    34   154   153    1
    35    74    75    1
    36   139   140    2
    37   168   167    1
    38    59    58    1
    39    56    55    1
    40    55    57    1
    41    55    52    1
    42   153   150    1
    43   134   136   ar
    44   134   132   ar
    45    66    64   ar
    46    58    53   am
    47   136   135   ar
    48   163   162    2
    49   131   132   ar
    50   131   129   ar
    51    54    53    2
    52    53    52    1
    53   132   130   ar
    54   121   119   ar
    55   121   122   ar
    56    75    76    2
    57   170   167    1
    58   170   171    1
    59    52    51    1
    60   167   166    1
    61   119   117   ar
    62   129   128   ar
    63   122   120   ar
    64   150   149    1
    65   150   151    1
    66   135   133   ar
    67   162   166   am
    68   162   161    1
    69   130   133   ar
    70   130   128   ar
    71   151   152    2
    72   151   160   am
    73   117   116    1
    74   117   118   ar
    75   128   127    1
    76    51    47   am
    77   160   161    1
    78   116   113    1
    79   120   118   ar
    80   171   165    1
    81   123   124    1
    82   123   114   am
    83   161   164    1
    84   124   127    1
    85   124   125    1
    86   165   164    1
    87    39    37   ar
    88    39    38   ar
    89    48    47    2
    90    47    46    1
    91   126   125    2
    92    37    35   ar
    93   172   173    1
    94   113   114    1
    95   113   112    1
    96    50    49    1
    97   114   115    2
    98    38    36   ar
    99    89    87   am
   100    46    49    1
   101    46    45    1
   102    35    34   ar
   103    35    33   ar
   104   109   108    2
   105   173   176    1
   106   173   174    1
   107   112   108   am
   108    87    88    2
   109    87    86    1
   110    34    32   ar
   111   111   110    1
   112    10     9   ar
   113    10     8   ar
   114   108   107    1
   115    86    83    1
   116   175   174    2
   117   178   180   ar
   118   178   177   ar
   119   176   177    1
   120    36    33   ar
   121    33    31   ar
   122   180   182   ar
   123   177   179   ar
   124     9     7   ar
   125     8     6   ar
   126    83    82    1
   127    83    84    1
   128   182   183    1
   129   182   181   ar
   130   179   181   ar
   131   110   107    1
   132    97    95    1
   133    32    31   ar
   134   107   106    1
   135     7     6   ar
   136     6     5    1
   137    31    30    1
   138    96    94    1
   139   148   145    1
   140    84    85    2
   141    95    94    1
   142    25    23    1
   143     5     2    1
   144   144   145    1
   145    94    91    1
   146    30    27    1
   147    18    16   ar
   148   145   146    1
   149    23    24    1
   150    23    20    1
   151    17    16   ar
   152   105   103   ar
   153     2     1    1
   154     2     3    1
   155    26    27    1
   156    16    15    1
   157    27    28    1
   158    90    91    1
   159    22    21    2
   160    21    20    1
   161    91    92    1
   162   104   103   ar
   163   146   147    2
   164   103   102    1
   165    20    19    1
   166     3     4    2
   167     3    11   am
   168   190   192   ar
   169   190   189   ar
   170    92    93    2
   171    92    98   am
   172    11    12    1
   173   184   185    1
   174    28    40   am
   175    28    29    2
   176   192   193   ar
   177    15    12    1
   178   188   189    1
   179   188   185    1
   180    40    41    1
   181    98    99    1
   182   102    99    1
   183   189   191   ar
   184    12    13    1
   185   185   186    1
   186    44    41    1
   187    99   100    1
   188    41    42    1
   189   193   191   ar
   190    13    14    2
   191   186   187    2
   192   100   101    2
   193    42    43    2
