@<TRIPOS>MOLECULE
tmp/3d61A00.pdb
 131 132 0 0 0
SMALL
GASTEIGER

@<TRIPOS>ATOM
      1  N        -14.9870   14.6950   12.6680 N.3    83  TRP83      -0.1241
      2  CA       -16.1750   13.8630   12.8400 C.3    83  TRP83       0.1605
      3  C        -16.4070   13.0760   14.1190 C.2    83  TRP83       0.2264
      4  O        -15.4820   12.7080   14.8430 O.2    83  TRP83      -0.2867
      5  CB       -16.2830   12.8180   11.7200 C.3    83  TRP83       0.0550
      6  CG       -15.8760   13.2220   10.3420 C.ar   83  TRP83       0.0003
      7  CD1      -15.7840   14.4840    9.8380 C.ar   83  TRP83       0.0946
      8  CD2      -15.5570   12.3300    9.2640 C.ar   83  TRP83       0.0152
      9  NE1      -15.4250   14.4350    8.5080 N.ar   83  TRP83      -0.2442
     10  CE2      -15.2800   13.1240    8.1320 C.ar   83  TRP83       0.0810
     11  CE3      -15.4810   10.9330    9.1490 C.ar   83  TRP83       0.0012
     12  CZ2      -14.9300   12.5690    6.8930 C.ar   83  TRP83       0.0191
     13  CZ3      -15.1340   10.3780    7.9150 C.ar   83  TRP83       0.0001
     14  CH2      -14.8630   11.2000    6.8030 C.ar   83  TRP83       0.0015
     15  N        -11.2600   11.4720    5.6940 N.3   102  THR102     -0.1203
     16  CA       -11.8210   11.9750    4.4350 C.3   102  THR102      0.1994
     17  C        -12.8290   10.9190    4.0010 C.2   102  THR102      0.2618
     18  O        -12.5190    9.7260    3.9910 O.2   102  THR102     -0.2717
     19  CB       -10.7510   12.1430    3.3320 C.3   102  THR102      0.1784
     20  OG1      -10.2220   10.8620    2.9670 O.3   102  THR102     -0.2211
     21  CG2       -9.6300   13.0350    3.8230 C.3   102  THR102      0.0376
     22  N        -14.0330   11.3650    3.6580 N.am  103  PHE103     -0.1961
     23  CA       -15.1400   10.4840    3.2730 C.3   103  PHE103      0.1771
     24  C        -14.8440    9.3840    2.2510 C.2   103  PHE103      0.2620
     25  O        -14.3400    9.6480    1.1580 O.2   103  PHE103     -0.2715
     26  CB       -16.3150   11.3320    2.7690 C.3   103  PHE103      0.0574
     27  CG       -17.6500   10.6360    2.8510 C.ar  103  PHE103     -0.0200
     28  CD1      -18.2370   10.3730    4.0870 C.ar  103  PHE103     -0.0042
     29  CD2      -18.3210   10.2470    1.6950 C.ar  103  PHE103     -0.0042
     30  CE1      -19.4760    9.7320    4.1730 C.ar  103  PHE103     -0.0003
     31  CE2      -19.5610    9.6020    1.7710 C.ar  103  PHE103     -0.0003
     32  CZ       -20.1380    9.3460    3.0140 C.ar  103  PHE103     -0.0000
     33  N        -15.1740    8.1470    2.6170 N.am  104  GLY104     -0.1940
     34  CA       -14.9660    7.0210    1.7260 C.3   104  GLY104      0.2014
     35  C        -13.6260    6.3060    1.8190 C.2   104  GLY104      0.2638
     36  O        -13.4470    5.2590    1.2080 O.2   104  GLY104     -0.2714
     37  N        -12.6860    6.8550    2.5790 N.am  105  LYS105     -0.1977
     38  CA       -11.3680    6.2340    2.7050 C.3   105  LYS105      0.1596
     39  C        -11.0280    5.9290    4.1590 C.2   105  LYS105      0.2287
     40  O        -11.5890    6.5370    5.0700 O.2   105  LYS105     -0.2864
     41  CB       -10.3110    7.1530    2.0920 C.3   105  LYS105      0.0298
     42  CG       -10.5460    7.4410    0.6130 C.3   105  LYS105      0.0038
     43  CD        -9.4720    8.3590    0.0510 C.3   105  LYS105      0.0206
     44  CE        -9.6960    8.6420   -1.4290 C.3   105  LYS105      0.1093
     45  NZ       -10.9930    9.3290   -1.6730 N.3   105  LYS105     -0.1314
     46  N        -11.1780    1.0220    9.8780 N.3   143  ASN143     -0.1240
     47  CA       -11.1650    2.4720    9.7300 C.3   143  ASN143      0.1653
     48  C        -11.2400    3.1460   11.1040 C.2   143  ASN143      0.2266
     49  O        -12.2060    2.9480   11.8490 O.2   143  ASN143     -0.2867
     50  CB       -12.3450    2.8970    8.8520 C.3   143  ASN143      0.1155
     51  CG       -12.2810    4.3510    8.4550 C.2   143  ASN143      0.2627
     52  OD1      -11.2340    4.9870    8.5610 O.2   143  ASN143     -0.2716
     53  ND2      -13.4010    4.8850    7.9770 N.am  143  ASN143     -0.0877
     54  N        -12.3200    5.7340   12.9380 N.3   145  ILE145     -0.1245
     55  CA       -13.2410    6.8550   13.1020 C.3   145  ILE145      0.1561
     56  C        -14.3970    6.4140   13.9970 C.2   145  ILE145      0.2260
     57  O        -14.5480    5.2200   14.2910 O.2   145  ILE145     -0.2867
     58  CB       -13.8460    7.3420   11.7500 C.3   145  ILE145      0.0252
     59  CG1      -14.7950    6.2840   11.1750 C.3   145  ILE145      0.0019
     60  CG2      -12.7410    7.6300   10.7420 C.3   145  ILE145      0.0019
     61  CD1      -15.6680    6.8190   10.0420 C.3   145  ILE145      0.0001
     62  N        -15.8480    1.8350   11.0980 N.3   163  SER163     -0.1202
     63  CA       -16.7540    2.1440   10.0100 C.3   163  SER163      0.2020
     64  C        -16.3030    1.3850    8.7680 C.2   163  SER163      0.2619
     65  O        -15.2200    1.6220    8.2360 O.2   163  SER163     -0.2717
     66  CB       -16.7640    3.6450    9.7270 C.3   163  SER163      0.2103
     67  OG       -17.5950    3.9360    8.6170 O.3   163  SER163     -0.2182
     68  N        -17.1460    0.4630    8.3240 N.am  164  PHE164     -0.1961
     69  CA       -16.8690   -0.3490    7.1520 C.3   164  PHE164      0.1771
     70  C        -15.6000   -1.1870    7.2800 C.2   164  PHE164      0.2619
     71  O        -15.1190   -1.4250    8.3890 O.2   164  PHE164     -0.2715
     72  CB       -16.8520    0.5360    5.9020 C.3   164  PHE164      0.0574
     73  CG       -18.2160    1.0720    5.5320 C.ar  164  PHE164     -0.0200
     74  CD1      -18.8660    1.9890    6.3550 C.ar  164  PHE164     -0.0042
     75  CD2      -18.8730    0.6190    4.3900 C.ar  164  PHE164     -0.0042
     76  CE1      -20.1550    2.4480    6.0460 C.ar  164  PHE164     -0.0003
     77  CE2      -20.1640    1.0680    4.0690 C.ar  164  PHE164     -0.0003
     78  CZ       -20.8050    1.9840    4.8980 C.ar  164  PHE164     -0.0000
     79  N        -15.0610   -1.6390    6.1550 N.am  165  TRP165     -0.1974
     80  CA       -13.8840   -2.5010    6.1820 C.3   165  TRP165      0.1640
     81  C        -14.2070   -3.7030    7.0840 C.2   165  TRP165      0.2290
     82  O        -15.2740   -4.2990    6.9290 O.2   165  TRP165     -0.2864
     83  CB       -12.6520   -1.7130    6.6510 C.3   165  TRP165      0.0576
     84  CG       -12.0530   -0.9040    5.5220 C.ar  165  TRP165      0.0006
     85  CD1      -11.1140   -1.3240    4.6190 C.ar  165  TRP165      0.0946
     86  CD2      -12.4360    0.4200    5.1130 C.ar  165  TRP165      0.0152
     87  NE1      -10.8940   -0.3490    3.6720 N.ar  165  TRP165     -0.2442
     88  CE2      -11.6910    0.7310    3.9510 C.ar  165  TRP165      0.0810
     89  CE3      -13.3390    1.3700    5.6130 C.ar  165  TRP165      0.0012
     90  CZ2      -11.8200    1.9540    3.2790 C.ar  165  TRP165      0.0191
     91  CZ3      -13.4700    2.5910    4.9420 C.ar  165  TRP165      0.0001
     92  CH2      -12.7110    2.8690    3.7880 C.ar  165  TRP165      0.0015
     93  N        -20.1310   -3.9590    0.3520 N.3   196  PRO196     -0.2116
     94  CA       -19.4170   -3.2840    1.4390 C.3   196  PRO196      0.1372
     95  C        -20.0090   -3.6880    2.7800 C.2   196  PRO196      0.2244
     96  O        -21.1320   -4.1810    2.8460 O.2   196  PRO196     -0.2868
     97  CB       -19.6270   -1.8060    1.1240 C.3   196  PRO196      0.0268
     98  CG       -20.9710   -1.8000    0.4770 C.3   196  PRO196      0.0207
     99  CD       -20.8820   -2.9850   -0.4570 C.3   196  PRO196      0.0892
    100  N        -21.2200    0.9380   11.4290 N.3   200  GLU200     -0.1245
    101  CA       -20.3310    1.9510   11.9890 C.3   200  GLU200      0.1567
    102  C        -20.9450    2.6200   13.2120 C.2   200  GLU200      0.2260
    103  O        -22.0400    2.2510   13.6560 O.2   200  GLU200     -0.2867
    104  CB       -20.0280    3.0270   10.9300 C.3   200  GLU200      0.0388
    105  CG       -21.2620    3.8440   10.5010 C.3   200  GLU200      0.1160
    106  CD       -20.9540    4.9060    9.4480 C.2   200  GLU200      0.3649
    107  OE1      -19.8150    4.9390    8.9380 O.co2 200  GLU200     -0.2457
    108  OE2      -21.8580    5.7100    9.1230 O.co2 200  GLU200     -0.2457
    109  N        -26.4960    3.1780    5.0350 N.3   219  PHE219     -0.1227
    110  CA       -25.9820    4.4850    4.6450 C.3   219  PHE219      0.1736
    111  C        -26.4590    5.8290    5.1620 C.2   219  PHE219      0.2596
    112  O        -27.6290    6.1840    5.0660 O.2   219  PHE219     -0.2718
    113  CB       -25.9750    4.5220    3.1170 C.3   219  PHE219      0.0547
    114  CG       -25.3980    3.2830    2.5070 C.ar  219  PHE219     -0.0202
    115  CD1      -24.0640    2.9500    2.7170 C.ar  219  PHE219     -0.0042
    116  CD2      -26.2050    2.4030    1.7940 C.ar  219  PHE219     -0.0042
    117  CE1      -23.5400    1.7520    2.2320 C.ar  219  PHE219     -0.0003
    118  CE2      -25.6920    1.2030    1.3030 C.ar  219  PHE219     -0.0003
    119  CZ       -24.3550    0.8770    1.5250 C.ar  219  PHE219     -0.0000
    120  N        -25.4870    6.5900    5.6590 N.am  220  CYS220     -0.1956
    121  CA       -25.6880    7.9390    6.1760 C.3   220  CYS220      0.1843
    122  C        -25.3910    8.8710    5.0330 C.2   220  CYS220      0.2625
    123  O        -25.1320    8.4560    3.8990 O.2   220  CYS220     -0.2714
    124  CB       -24.6160    8.3040    7.2090 C.3   220  CYS220      0.0997
    125  SG       -22.9680    8.6310    6.4260 S.3   220  CYS220     -0.0797
    126  N        -25.4340   10.1510    5.3760 N.am  221  CYS221     -0.1968
    127  CA       -24.9860   11.1920    4.4880 C.3   221  CYS221      0.1712
    128  C        -25.5380   11.2900    3.0650 C.2   221  CYS221      0.2296
    129  O        -24.8220   11.7140    2.1500 O.2   221  CYS221     -0.2864
    130  CB       -23.4630   11.0440    4.4780 C.3   221  CYS221      0.0983
    131  SG       -22.8130   10.6510    6.1540 S.3   221  CYS221     -0.0798
@<TRIPOS>BOND
     1    45    44    1
     2    44    43    1
     3    99    93    1
     4    99    98    1
     5    43    42    1
     6    93    94    1
     7    98    97    1
     8    42    41    1
     9    97    94    1
    10    25    24    2
    11    36    35    2
    12   118   119   ar
    13   118   116   ar
    14    94    95    1
    15   119   117   ar
    16    29    31   ar
    17    29    27   ar
    18    34    35    1
    19    34    33    1
    20    31    32   ar
    21   116   114   ar
    22    35    37   am
    23    41    38    1
    24   129   128    2
    25   117   115   ar
    26    24    33   am
    27    24    23    1
    28   114   115   ar
    29   114   113    1
    30    37    38    1
    31    38    39    1
    32    26    27    1
    33    26    23    1
    34    95    96    2
    35    27    28   ar
    36    20    19    1
    37    32    30   ar
    38   128   127    1
    39   113   110    1
    40    23    22    1
    41    90    92   ar
    42    90    88   ar
    43    19    21    1
    44    19    16    1
    45    22    17   am
    46    87    88   ar
    47    87    85   ar
    48    92    91   ar
    49   123   122    2
    50    88    86   ar
    51    18    17    2
    52    17    16    1
    53    77    75   ar
    54    77    78   ar
    55    28    30   ar
    56    39    40    2
    57    75    73   ar
    58    16    15    1
    59   130   127    1
    60   130   131    1
    61   127   126    1
    62    85    84   ar
    63   110   109    1
    64   110   111    1
    65    78    76   ar
    66    91    89   ar
    67   122   126   am
    68   122   121    1
    69   112   111    2
    70    86    84   ar
    71    86    89   ar
    72   111   120   am
    73    84    83    1
    74    73    72    1
    75    73    74   ar
    76   120   121    1
    77    72    69    1
    78    76    74   ar
    79   131   125    1
    80    79    80    1
    81    79    70   am
    82   121   124    1
    83    80    83    1
    84    80    81    1
    85   125   124    1
    86    14    12   ar
    87    14    13   ar
    88    12    10   ar
    89    82    81    2
    90    69    70    1
    91    69    68    1
    92    70    71    2
    93    13    11   ar
    94    53    51   am
    95    10     9   ar
    96    10     8   ar
    97    65    64    2
    98    68    64   am
    99    51    52    2
   100    51    50    1
   101     9     7   ar
   102    67    66    1
   103    64    63    1
   104    50    47    1
   105   107   106   ar
   106   108   106   ar
   107    11     8   ar
   108     8     6   ar
   109   106   105    1
   110    66    63    1
   111    47    46    1
   112    47    48    1
   113     7     6   ar
   114    63    62    1
   115    61    59    1
   116     6     5    1
   117   105   104    1
   118    60    58    1
   119   104   101    1
   120    48    49    2
   121    59    58    1
   122   100   101    1
   123     5     2    1
   124    58    55    1
   125   101   102    1
   126     1     2    1
   127     2     3    1
   128    54    55    1
   129    55    56    1
   130   102   103    2
   131    56    57    2
   132     3     4    2
