@<TRIPOS>MOLECULE
tmp/3d62A00.pdb
 128 125 0 0 0
SMALL
GASTEIGER

@<TRIPOS>ATOM
      1  N         64.8190   48.0480   48.7210 N.3    23  THR23      -0.1203
      2  CA        64.9890   46.7440   48.0900 C.3    23  THR23       0.1994
      3  C         64.3800   45.6550   48.9670 C.2    23  THR23       0.2619
      4  O         64.7300   45.5200   50.1420 O.2    23  THR23      -0.2717
      5  CB        66.4710   46.4230   47.8150 C.3    23  THR23       0.1784
      6  OG1       67.1460   47.6050   47.3720 O.3    23  THR23      -0.2211
      7  CG2       66.6010   45.3400   46.7560 C.3    23  THR23       0.0376
      8  N         63.4720   44.8840   48.3740 N.am   24  THR24      -0.1938
      9  CA        62.6940   43.8830   49.0840 C.3    24  THR24       0.2028
     10  C         62.6130   42.6270   48.2100 C.2    24  THR24       0.2642
     11  O         62.0320   42.6580   47.1220 O.2    24  THR24      -0.2714
     12  CB        61.2810   44.4320   49.4050 C.3    24  THR24       0.1808
     13  OG1       61.3930   45.7020   50.0700 O.3    24  THR24      -0.2208
     14  CG2       60.4980   43.4760   50.2920 C.3    24  THR24       0.0379
     15  N         63.2150   41.5330   48.6790 N.am   25  LEU25      -0.1977
     16  CA        63.2260   40.2630   47.9350 C.3    25  LEU25       0.1596
     17  C         63.1310   39.0280   48.8440 C.2    25  LEU25       0.2287
     18  O         63.2610   39.1310   50.0600 O.2    25  LEU25      -0.2864
     19  CB        64.4640   40.1740   47.0330 C.3    25  LEU25       0.0297
     20  CG        65.8410   40.5420   47.6040 C.3    25  LEU25       0.0022
     21  CD1       66.3190   39.5400   48.6620 C.3    25  LEU25       0.0001
     22  CD2       66.8710   40.6860   46.4840 C.3    25  LEU25       0.0001
     23  N         72.4190   41.1240   46.1250 N.3    39  HIS39      -0.1241
     24  CA        72.0130   42.3990   45.5180 C.3    39  HIS39       0.1621
     25  C         70.8600   43.1200   46.2420 C.2    39  HIS39       0.2264
     26  O         70.3930   44.1670   45.7880 O.2    39  HIS39      -0.2867
     27  CB        71.7380   42.2550   44.0150 C.3    39  HIS39       0.0745
     28  CG        70.4750   41.5170   43.6850 C.ar   39  HIS39       0.0817
     29  ND1       70.4750   40.2410   43.1610 N.ar   39  HIS39      -0.2268
     30  CD2       69.1750   41.8890   43.7760 C.ar   39  HIS39       0.1154
     31  CE1       69.2280   39.8550   42.9550 C.ar   39  HIS39       0.1986
     32  NE2       68.4200   40.8350   43.3240 N.ar   39  HIS39      -0.2212
     33  N         73.2280   48.7490   40.5890 N.3    47  MET47      -0.1245
     34  CA        73.2530   47.5360   39.7660 C.3    47  MET47       0.1570
     35  C         74.0070   47.7510   38.4500 C.2    47  MET47       0.2261
     36  O         74.3290   46.7850   37.7510 O.2    47  MET47      -0.2867
     37  CB        71.8310   47.0250   39.4960 C.3    47  MET47       0.0387
     38  CG        71.1350   46.3410   40.6850 C.3    47  MET47       0.0595
     39  SD        72.0650   45.0750   41.6110 S.3    47  MET47      -0.1393
     40  CE        72.7160   43.9930   40.3340 C.3    47  MET47       0.0692
     41  N         58.6700   38.0970   37.9850 N.3   139  LEU139     -0.1231
     42  CA        58.5460   39.5530   37.9070 C.3   139  LEU139      0.1693
     43  C         59.2080   40.1900   39.1330 C.2   139  LEU139      0.2592
     44  O         59.9060   39.5080   39.8880 O.2   139  LEU139     -0.2718
     45  CB        57.0870   40.0110   37.7220 C.3   139  LEU139      0.0284
     46  CG        56.8020   41.0460   36.6040 C.3   139  LEU139      0.0019
     47  CD1       55.3920   41.6370   36.7170 C.3   139  LEU139      0.0001
     48  CD2       57.8360   42.1800   36.5130 C.3   139  LEU139      0.0001
     49  N         59.0150   41.4960   39.3150 N.am  140  ASN140     -0.1960
     50  CA        59.6300   42.2110   40.4280 C.3   140  ASN140      0.1819
     51  C         59.4470   41.4790   41.7610 C.2   140  ASN140      0.2622
     52  O         58.3670   40.9480   42.0460 O.2   140  ASN140     -0.2715
     53  CB        59.1440   43.6740   40.5010 C.3   140  ASN140      0.1195
     54  CG        57.6250   43.8200   40.3410 C.2   140  ASN140      0.2630
     55  OD1       56.9790   43.0680   39.6050 O.2   140  ASN140     -0.2716
     56  ND2       57.0580   44.8160   41.0160 N.am  140  ASN140     -0.0877
     57  N         60.5260   41.4110   42.5420 N.am  141  GLY141     -0.1940
     58  CA        60.5030   40.8040   43.8760 C.3   141  GLY141      0.2014
     59  C         60.5020   39.2830   43.9300 C.2   141  GLY141      0.2640
     60  O         60.1210   38.6990   44.9480 O.2   141  GLY141     -0.2714
     61  N         60.9320   38.6370   42.8480 N.am  142  SER142     -0.1935
     62  CA        60.9530   37.1690   42.7740 C.3   142  SER142      0.2055
     63  C         62.3460   36.5820   42.9830 C.2   142  SER142      0.2643
     64  O         62.4970   35.3630   43.0910 O.2   142  SER142     -0.2714
     65  CB        60.4070   36.6940   41.4330 C.3   142  SER142      0.2130
     66  OG        60.9740   37.4590   40.3800 O.3   142  SER142     -0.2179
     67  N         63.3590   37.4470   43.0110 N.am  143  CYS143     -0.1967
     68  CA        64.7110   37.0300   43.3640 C.3   143  CYS143      0.1712
     69  C         64.6730   36.5570   44.8020 C.2   143  CYS143      0.2296
     70  O         64.0600   37.2010   45.6580 O.2   143  CYS143     -0.2864
     71  CB        65.6940   38.1820   43.2060 C.3   143  CYS143      0.0983
     72  SG        65.6720   38.9430   41.5620 S.3   143  CYS143     -0.0798
     73  N         67.0750   32.2930   42.6140 N.3   161  HIS161     -0.1226
     74  CA        66.9740   33.2030   41.4700 C.3   161  HIS161      0.1752
     75  C         67.6200   34.5780   41.7220 C.2   161  HIS161      0.2596
     76  O         67.4350   35.1930   42.7800 O.2   161  HIS161     -0.2718
     77  CB        65.5160   33.3430   41.0030 C.3   161  HIS161      0.0759
     78  CG        65.3310   34.3100   39.8720 C.ar  161  HIS161      0.0818
     79  ND1       65.6370   33.9950   38.5640 N.ar  161  HIS161     -0.2268
     80  CD2       64.8760   35.5870   39.8550 C.ar  161  HIS161      0.1154
     81  CE1       65.3790   35.0380   37.7920 C.ar  161  HIS161      0.1986
     82  NE2       64.9170   36.0170   38.5500 N.ar  161  HIS161     -0.2212
     83  N         68.3690   35.0580   40.7310 N.am  162  HIS162     -0.1961
     84  CA        69.0980   36.3110   40.8700 C.3   162  HIS162      0.1787
     85  C         68.7010   37.3810   39.8490 C.2   162  HIS162      0.2620
     86  O         68.5030   38.5540   40.2080 O.2   162  HIS162     -0.2715
     87  CB        70.6020   36.0480   40.8030 C.3   162  HIS162      0.0785
     88  CG        71.1720   35.4860   42.0650 C.ar  162  HIS162      0.0821
     89  ND1       72.1380   36.1380   42.8000 N.ar  162  HIS162     -0.2267
     90  CD2       70.9090   34.3340   42.7270 C.ar  162  HIS162      0.1154
     91  CE1       72.4430   35.4160   43.8630 C.ar  162  HIS162      0.1986
     92  NE2       71.7090   34.3170   43.8430 N.ar  162  HIS162     -0.2212
     93  N         68.6110   36.9920   38.5810 N.am  163  MET163     -0.1977
     94  CA        68.4000   37.9680   37.5220 C.3   163  MET163      0.1605
     95  C         67.7690   37.3780   36.2810 C.2   163  MET163      0.2287
     96  O         67.8540   36.1750   36.0170 O.2   163  MET163     -0.2864
     97  CB        69.7150   38.6600   37.1340 C.3   163  MET163      0.0413
     98  CG        70.9300   37.7350   37.0800 C.3   163  MET163      0.0598
     99  SD        71.9560   37.9660   35.6220 S.3   163  MET163     -0.1393
    100  CE        72.6430   39.5870   35.8960 C.3   163  MET163      0.0692
    101  N         76.1670   38.8290   39.1940 N.3   185  ASP185     -0.1225
    102  CA        75.1580   39.7880   39.6930 C.3   185  ASP185      0.1805
    103  C         75.5030   41.2300   39.3250 C.2   185  ASP185      0.2598
    104  O         76.0520   41.9770   40.1370 O.2   185  ASP185     -0.2718
    105  CB        74.8500   39.6490   41.2090 C.3   185  ASP185      0.1424
    106  CG        75.9350   38.9120   41.9960 C.2   185  ASP185      0.3668
    107  OD1       77.1020   38.8730   41.5550 O.co2 185  ASP185     -0.2456
    108  OD2       75.6020   38.3730   43.0790 O.co2 185  ASP185     -0.2456
    109  N         75.1590   41.6000   38.0910 N.am  186  ARG186     -0.1966
    110  CA        75.5160   42.8900   37.5050 C.3   186  ARG186      0.1729
    111  C         74.7160   43.1340   36.2200 C.2   186  ARG186      0.2616
    112  O         74.5600   42.2280   35.4010 O.2   186  ARG186     -0.2715
    113  CB        77.0240   42.9340   37.2200 C.3   186  ARG186      0.0348
    114  CG        77.5280   44.2420   36.6620 C.3   186  ARG186      0.0492
    115  CD        79.0310   44.2370   36.5360 C.3   186  ARG186      0.2205
    116  NE        79.4690   45.2420   35.5710 N.pl3 186  ARG186     -0.0865
    117  CZ        80.7350   45.5460   35.3020 C.cat 186  ARG186      0.5346
    118  NH1       81.7250   44.9360   35.9440 N.pl3 186  ARG186      0.1354
    119  NH2       81.0090   46.4770   34.3960 N.pl3 186  ARG186      0.1354
    120  N         74.2060   44.3540   36.0590 N.am  187  GLN187     -0.1977
    121  CA        73.4670   44.7360   34.8520 C.3   187  GLN187      0.1601
    122  C         74.4030   45.3090   33.7830 C.2   187  GLN187      0.2287
    123  O         74.5010   46.5260   33.5960 O.2   187  GLN187     -0.2864
    124  CB        72.3140   45.7000   35.1820 C.3   187  GLN187      0.0394
    125  CG        71.3230   45.9650   34.0330 C.3   187  GLN187      0.0908
    126  CD        70.7880   44.6980   33.3530 C.2   187  GLN187      0.2608
    127  OE1       70.8240   44.5810   32.1250 O.2   187  GLN187     -0.2717
    128  NE2       70.2860   43.7540   34.1480 N.am  187  GLN187     -0.0878
@<TRIPOS>BOND
     1   127   126    2
     2   126   125    1
     3   126   128   am
     4   123   122    2
     5   122   121    1
     6   125   124    1
     7   119   117    1
     8   121   124    1
     9   121   120    1
    10   117   116    2
    11   117   118    1
    12   112   111    2
    13   116   115    1
    14    99   100    1
    15    99    98    1
    16    96    95    2
    17   120   111   am
    18   111   110    1
    19    95    94    1
    20    48    46    1
    21   115   114    1
    22    46    47    1
    23    46    45    1
    24   114   113    1
    25    98    97    1
    26    97    94    1
    27   113   110    1
    28   110   109    1
    29    94    93    1
    30    45    42    1
    31    36    35    2
    32    81    82   ar
    33    81    79   ar
    34    42    41    1
    35    42    43    1
    36   109   103   am
    37    35    34    1
    38    82    80   ar
    39    79    78   ar
    40    93    85   am
    41    43    49   am
    42    43    44    2
    43   101   102    1
    44    49    50    1
    45   103   102    1
    46   103   104    2
    47    37    34    1
    48    37    38    1
    49    55    54    2
    50   102   105    1
    51    34    33    1
    52    85    86    2
    53    85    84    1
    54    80    78   ar
    55    78    77    1
    56    40    39    1
    57    54    53    1
    58    54    56   am
    59    66    65    1
    60    50    53    1
    61    50    51    1
    62    38    39    1
    63    83    84    1
    64    83    75   am
    65    87    84    1
    66    87    88    1
    67    77    74    1
    68   105   106    1
    69    65    62    1
    70    74    75    1
    71    74    73    1
    72   107   106   ar
    73    72    71    1
    74    75    76    2
    75    51    52    2
    76    51    57   am
    77   106   108   ar
    78    88    90   ar
    79    88    89   ar
    80    57    58    1
    81    90    92   ar
    82    62    61    1
    83    62    63    1
    84    89    91   ar
    85    61    59   am
    86    31    29   ar
    87    31    32   ar
    88    63    67   am
    89    63    64    2
    90    67    68    1
    91    29    28   ar
    92    71    68    1
    93    32    30   ar
    94    68    69    1
    95    28    30   ar
    96    28    27    1
    97    92    91   ar
    98    58    59    1
    99    59    60    2
   100    27    24    1
   101    69    70    2
   102    24    23    1
   103    24    25    1
   104    26    25    2
   105    22    20    1
   106     7     5    1
   107    19    20    1
   108    19    16    1
   109    11    10    2
   110     6     5    1
   111    20    21    1
   112     5     2    1
   113    16    15    1
   114    16    17    1
   115     2     1    1
   116     2     3    1
   117    10    15   am
   118    10     9    1
   119     8     3   am
   120     8     9    1
   121    17    18    2
   122     3     4    2
   123     9    12    1
   124    12    13    1
   125    12    14    1
