@<TRIPOS>MOLECULE
tmp/3d6bC00.pdb
 125 116 0 0 0
SMALL
GASTEIGER

@<TRIPOS>ATOM
      1  N        -21.8120   67.6610   -3.3090 N.3    94  ARG94      -0.1231
      2  CA       -22.3290   68.4890   -2.2090 C.3    94  ARG94       0.1694
      3  C        -21.4010   69.6890   -2.0280 C.2    94  ARG94       0.2592
      4  O        -21.8540   70.8200   -1.8920 O.2    94  ARG94      -0.2718
      5  CB       -22.4980   67.6810   -0.9050 C.3    94  ARG94       0.0321
      6  CG       -23.1180   68.4610    0.2670 C.3    94  ARG94       0.0489
      7  CD       -22.0690   69.2540    1.0920 C.3    94  ARG94       0.2205
      8  NE       -20.9170   68.4380    1.5020 N.pl3  94  ARG94      -0.0865
      9  CZ       -19.6520   68.8660    1.5200 C.cat  94  ARG94       0.5346
     10  NH1      -18.6680   68.0480    1.9030 N.pl3  94  ARG94       0.1354
     11  NH2      -19.3610   70.1130    1.1580 N.pl3  94  ARG94       0.1354
     12  N        -20.1000   69.4140   -2.0480 N.am   95  SER95      -0.1952
     13  CA       -19.0530   70.4240   -2.0460 C.3    95  SER95       0.1924
     14  C        -19.2770   71.5860   -3.0500 C.2    95  SER95       0.2314
     15  O        -19.1930   72.7630   -2.6920 O.2    95  SER95      -0.2863
     16  CB       -17.7230   69.7220   -2.3230 C.3    95  SER95       0.2116
     17  OG       -16.6340   70.5600   -2.0160 O.3    95  SER95      -0.2180
     18  N        -22.1900   73.5990   -1.7610 N.3    98  SER98      -0.1202
     19  CA       -21.8190   74.3110   -0.5240 C.3    98  SER98       0.2020
     20  C        -21.0950   75.6160   -0.8210 C.2    98  SER98       0.2618
     21  O        -21.3460   76.6300   -0.1900 O.2    98  SER98      -0.2717
     22  CB       -20.8840   73.4500    0.3350 C.3    98  SER98       0.2103
     23  OG       -21.5850   72.3960    0.9500 O.3    98  SER98      -0.2182
     24  N        -20.1750   75.5500   -1.7750 N.am   99  VAL99      -0.1979
     25  CA       -19.4060   76.7020   -2.2090 C.3    99  VAL99       0.1595
     26  C        -20.3350   77.7930   -2.7570 C.2    99  VAL99       0.2287
     27  O        -20.2970   78.9420   -2.3000 O.2    99  VAL99      -0.2864
     28  CB       -18.2910   76.2800   -3.2180 C.3    99  VAL99       0.0276
     29  CG1      -17.6570   77.4880   -3.8740 C.3    99  VAL99       0.0022
     30  CG2      -17.2280   75.4920   -2.4940 C.3    99  VAL99       0.0022
     31  N        -20.5290   79.8800    0.4990 N.3   103  LEU103     -0.1245
     32  CA       -19.2330   80.5710    0.4110 C.3   103  LEU103      0.1561
     33  C        -19.1960   81.7280   -0.5830 C.2   103  LEU103      0.2260
     34  O        -18.2070   82.4720   -0.6540 O.2   103  LEU103     -0.2867
     35  CB       -18.1140   79.5650    0.0800 C.3   103  LEU103      0.0270
     36  CG       -17.9620   78.4140    1.0710 C.3   103  LEU103      0.0019
     37  CD1      -16.8000   77.5210    0.6580 C.3   103  LEU103      0.0001
     38  CD2      -17.7800   78.9500    2.5100 C.3   103  LEU103      0.0001
     39  N        -14.4020   80.5450   -3.7230 N.3   133  PHE133     -0.1241
     40  CA       -14.1720   81.2490   -2.4760 C.3   133  PHE133      0.1605
     41  C        -12.7090   81.0830   -2.1080 C.2   133  PHE133      0.2264
     42  O        -12.2440   79.9780   -1.8960 O.2   133  PHE133     -0.2867
     43  CB       -15.1630   80.6720   -1.4490 C.3   133  PHE133      0.0534
     44  CG       -14.8790   80.9870   -0.0070 C.ar  133  PHE133     -0.0203
     45  CD1      -14.1540   80.1000    0.7800 C.ar  133  PHE133     -0.0042
     46  CD2      -15.4300   82.1050    0.5950 C.ar  133  PHE133     -0.0042
     47  CE1      -13.9330   80.3630    2.1320 C.ar  133  PHE133     -0.0003
     48  CE2      -15.2290   82.3670    1.9290 C.ar  133  PHE133     -0.0003
     49  CZ       -14.4750   81.5020    2.7050 C.ar  133  PHE133     -0.0000
     50  N        -12.3610   74.6280   -4.5450 N.3   165  THR165     -0.1218
     51  CA       -13.3740   73.9310   -5.3390 C.3   165  THR165      0.1862
     52  C        -14.1720   74.8990   -6.2220 C.2   165  THR165      0.2287
     53  O        -14.5240   76.0210   -5.8050 O.2   165  THR165     -0.2866
     54  CB       -14.2430   72.9310   -4.4740 C.3   165  THR165      0.1770
     55  OG1      -15.6180   72.8920   -4.9050 O.3   165  THR165     -0.2211
     56  CG2      -14.1860   73.2650   -3.0120 C.3   165  THR165      0.0375
     57  N        -17.8580   80.3040    6.5710 N.3   244  LEU244     -0.1245
     58  CA       -17.4150   78.9820    7.0160 C.3   244  LEU244      0.1561
     59  C        -18.4570   78.3070    7.8940 C.2   244  LEU244      0.2260
     60  O        -18.6890   77.1080    7.7730 O.2   244  LEU244     -0.2867
     61  CB       -16.0680   79.0810    7.7350 C.3   244  LEU244      0.0270
     62  CG       -14.8700   79.6070    6.9280 C.3   244  LEU244      0.0019
     63  CD1      -13.6770   79.9180    7.8650 C.3   244  LEU244      0.0001
     64  CD2      -14.4420   78.6530    5.7870 C.3   244  LEU244      0.0001
     65  N        -21.2640   77.0900    5.7120 N.3   247  ALA247     -0.1231
     66  CA       -20.8310   75.9000    4.9970 C.3   247  ALA247      0.1694
     67  C        -20.7040   74.6800    5.9140 C.2   247  ALA247      0.2591
     68  O        -21.0910   73.6080    5.5230 O.2   247  ALA247     -0.2718
     69  CB       -19.5210   76.1470    4.2360 C.3   247  ALA247      0.0304
     70  N        -20.1420   74.8510    7.1070 N.am  248  ARG248     -0.1980
     71  CA       -19.9960   73.7350    8.0760 C.3   248  ARG248      0.1597
     72  C        -21.3450   73.1250    8.4460 C.2   248  ARG248      0.2287
     73  O        -21.4650   71.9090    8.5940 O.2   248  ARG248     -0.2864
     74  CB       -19.2960   74.2020    9.3470 C.3   248  ARG248      0.0334
     75  CG       -17.8350   74.4450    9.1650 C.3   248  ARG248      0.0492
     76  CD       -17.3780   75.5430   10.1020 C.3   248  ARG248      0.2205
     77  NE       -15.9390   75.7450    9.9800 N.pl3 248  ARG248     -0.0865
     78  CZ       -15.2490   76.6690   10.6400 C.cat 248  ARG248      0.5346
     79  NH1      -15.8770   77.5090   11.4620 N.pl3 248  ARG248      0.1354
     80  NH2      -13.9320   76.7470   10.4730 N.pl3 248  ARG248      0.1354
     81  N        -22.4520   70.8930    5.5770 N.3   251  ILE251     -0.1245
     82  CA       -21.6250   69.6940    5.6400 C.3   251  ILE251      0.1561
     83  C        -22.0550   68.7830    6.8070 C.2   251  ILE251      0.2260
     84  O        -22.0190   67.5550    6.7000 O.2   251  ILE251     -0.2867
     85  CB       -20.1400   70.1020    5.7900 C.3   251  ILE251      0.0252
     86  CG1      -19.6800   70.8700    4.5680 C.3   251  ILE251      0.0019
     87  CG2      -19.2240   68.9000    6.0450 C.3   251  ILE251      0.0019
     88  CD1      -18.3640   71.5650    4.7980 C.3   251  ILE251      0.0001
     89  N        -20.8060   69.6370   12.9900 N.3   322  LYS322     -0.1245
     90  CA       -19.9100   69.3870   11.8700 C.3   322  LYS322      0.1561
     91  C        -18.8890   68.3140   12.2450 C.2   322  LYS322      0.2260
     92  O        -18.7490   67.3150   11.5500 O.2   322  LYS322     -0.2867
     93  CB       -19.2150   70.6870   11.4120 C.3   322  LYS322      0.0271
     94  CG       -18.5630   70.6030   10.0210 C.3   322  LYS322      0.0035
     95  CD       -17.1390   70.1820   10.1250 C.3   322  LYS322      0.0206
     96  CE       -16.5060   69.9920    8.7620 C.3   322  LYS322      0.1093
     97  NZ       -14.9980   69.9790    8.9220 N.3   322  LYS322     -0.1314
     98  N        -12.6980   65.2220    3.5310 N.3   354  VAL354     -0.1245
     99  CA       -13.6190   66.1360    4.2240 C.3   354  VAL354      0.1561
    100  C        -13.2280   66.2960    5.6910 C.2   354  VAL354      0.2260
    101  O        -13.1540   67.4170    6.2000 O.2   354  VAL354     -0.2867
    102  CB       -15.0960   65.6720    4.1420 C.3   354  VAL354      0.0252
    103  CG1      -15.9820   66.5180    5.0620 C.3   354  VAL354      0.0019
    104  CG2      -15.6160   65.7130    2.7000 C.3   354  VAL354      0.0019
    105  N        -10.0670   68.4310    5.7640 N.3   357  TYR357     -0.1227
    106  CA       -10.0870   69.6950    5.0110 C.3   357  TYR357      0.1736
    107  C         -9.7270   70.9470    5.8230 C.2   357  TYR357      0.2595
    108  O         -8.9440   71.7840    5.3560 O.2   357  TYR357     -0.2718
    109  CB       -11.4020   69.9110    4.2550 C.3   357  TYR357      0.0548
    110  CG       -11.3110   71.1150    3.3400 C.ar  357  TYR357     -0.0200
    111  CD1      -10.8920   70.9790    2.0260 C.ar  357  TYR357     -0.0009
    112  CD2      -11.5840   72.3970    3.8100 C.ar  357  TYR357     -0.0009
    113  CE1      -10.7650   72.0930    1.1890 C.ar  357  TYR357      0.0417
    114  CE2      -11.4530   73.5100    2.9910 C.ar  357  TYR357      0.0417
    115  CZ       -11.0470   73.3490    1.6820 C.ar  357  TYR357      0.1957
    116  OH       -10.9310   74.4540    0.8590 O.3   357  TYR357     -0.2866
    117  N        -10.3020   71.0780    7.0180 N.am  358  GLU358     -0.1979
    118  CA       -10.0340   72.2370    7.8760 C.3   358  GLU358      0.1602
    119  C         -8.8260   72.0250    8.8000 C.2   358  GLU358      0.2287
    120  O         -8.6950   72.7050    9.8190 O.2   358  GLU358     -0.2864
    121  CB       -11.2640   72.5950    8.7200 C.3   358  GLU358      0.0415
    122  CG       -12.5520   72.7150    7.9470 C.3   358  GLU358      0.1163
    123  CD       -13.6720   73.2930    8.7820 C.2   358  GLU358      0.3649
    124  OE1      -13.7990   74.5370    8.8150 O.co2 358  GLU358     -0.2457
    125  OE2      -14.4350   72.5090    9.3940 O.co2 358  GLU358     -0.2457
@<TRIPOS>BOND
     1    52    53    2
     2    52    51    1
     3    51    50    1
     4    51    54    1
     5    55    54    1
     6    54    56    1
     7    29    28    1
     8    39    40    1
     9     1     2    1
    10    28    30    1
    11    28    25    1
    12    14    15    2
    13    14    13    1
    14    26    27    2
    15    26    25    1
    16    40    41    1
    17    40    43    1
    18    16    13    1
    19    16    17    1
    20     2     3    1
    21     2     5    1
    22    25    24    1
    23    41    42    2
    24    12    13    1
    25    12     3   am
    26     3     4    2
    27    24    20   am
    28    18    19    1
    29    43    44    1
    30     5     6    1
    31    20    19    1
    32    20    21    2
    33    34    33    2
    34    33    32    1
    35    19    22    1
    36    44    46   ar
    37    44    45   ar
    38    35    32    1
    39    35    36    1
    40     6     7    1
    41    22    23    1
    42    32    31    1
    43    46    48   ar
    44    37    36    1
    45    45    47   ar
    46   116   115    1
    47    36    38    1
    48     7     8    1
    49    11     9    1
    50   113   115   ar
    51   113   111   ar
    52     8     9    2
    53     9    10    1
    54   115   114   ar
    55    48    49   ar
    56   111   110   ar
    57    47    49   ar
    58   104   102    1
    59   114   112   ar
    60   110   112   ar
    61   110   109    1
    62    98    99    1
    63   102    99    1
    64   102   103    1
    65    99   100    1
    66    69    66    1
    67   109   106    1
    68    86    88    1
    69    86    85    1
    70    66    65    1
    71    66    67    1
    72   106   105    1
    73   106   107    1
    74   108   107    2
    75    68    67    2
    76    81    82    1
    77    82    85    1
    78    82    83    1
    79   100   101    2
    80    64    62    1
    81    85    87    1
    82   107   117   am
    83    67    70   am
    84    57    58    1
    85    84    83    2
    86    62    61    1
    87    62    63    1
    88    58    61    1
    89    58    59    1
    90   117   118    1
    91    70    71    1
    92    60    59    2
    93   118   121    1
    94   118   119    1
    95   122   121    1
    96   122   123    1
    97    71    72    1
    98    71    74    1
    99    72    73    2
   100    96    97    1
   101    96    95    1
   102   123   124   ar
   103   123   125   ar
   104   119   120    2
   105    75    74    1
   106    75    76    1
   107    77    76    1
   108    77    78    2
   109    94    95    1
   110    94    93    1
   111    80    78    1
   112    78    79    1
   113    93    90    1
   114    92    91    2
   115    90    91    1
   116    90    89    1
