@<TRIPOS>MOLECULE
tmp/3d6dA00.pdb
 226 217 0 0 0
SMALL
GASTEIGER

@<TRIPOS>ATOM
      1  N         12.2970   73.6220    4.2070 N.3    58  PHE58      -0.1241
      2  CA        13.4930   73.8250    5.0160 C.3    58  PHE58       0.1605
      3  C         13.5990   75.2680    5.4920 C.2    58  PHE58       0.2264
      4  O         13.8110   76.1820    4.6950 O.2    58  PHE58      -0.2867
      5  CB        14.7500   73.4590    4.2210 C.3    58  PHE58       0.0534
      6  CG        15.0840   71.9950    4.2520 C.ar   58  PHE58      -0.0203
      7  CD1       14.2120   71.0530    3.7180 C.ar   58  PHE58      -0.0042
      8  CD2       16.2760   71.5580    4.8220 C.ar   58  PHE58      -0.0042
      9  CE1       14.5230   69.6940    3.7510 C.ar   58  PHE58      -0.0003
     10  CE2       16.5960   70.2040    4.8600 C.ar   58  PHE58      -0.0003
     11  CZ        15.7180   69.2700    4.3230 C.ar   58  PHE58      -0.0000
     12  N         15.8790   76.1880    7.4240 N.3    60  HIS60      -0.1241
     13  CA        17.3050   76.3830    7.6530 C.3    60  HIS60       0.1621
     14  C         17.9180   77.2230    6.5390 C.2    60  HIS60       0.2264
     15  O         17.2140   77.6980    5.6480 O.2    60  HIS60      -0.2867
     16  CB        18.0190   75.0300    7.7250 C.3    60  HIS60       0.0745
     17  CG        17.5320   74.1480    8.8330 C.ar   60  HIS60       0.0817
     18  ND1       17.6050   74.5120   10.1600 N.ar   60  HIS60      -0.2268
     19  CD2       16.9700   72.9170    8.8110 C.ar   60  HIS60       0.1154
     20  CE1       17.1070   73.5430   10.9080 C.ar   60  HIS60       0.1986
     21  NE2       16.7150   72.5630   10.1140 N.ar   60  HIS60      -0.2212
     22  N         22.1600   70.5060    9.6370 N.3    75  ILE75      -0.1245
     23  CA        21.5010   69.2060    9.6060 C.3    75  ILE75       0.1561
     24  C         21.2820   68.6830   11.0190 C.2    75  ILE75       0.2260
     25  O         20.2240   68.1350   11.3290 O.2    75  ILE75      -0.2867
     26  CB        22.3450   68.1750    8.8150 C.3    75  ILE75       0.0252
     27  CG1       22.5450   68.6560    7.3790 C.3    75  ILE75       0.0019
     28  CG2       21.6630   66.8240    8.8230 C.3    75  ILE75       0.0019
     29  CD1       23.5040   67.8090    6.5870 C.3    75  ILE75       0.0001
     30  N         18.4560   70.5560   12.8360 N.3    78  GLY78      -0.1210
     31  CA        17.1640   70.1590   12.3090 C.3    78  GLY78       0.1956
     32  C         16.7920   68.7650   12.7600 C.2    78  GLY78       0.2612
     33  O         15.6270   68.4620   13.0250 O.2    78  GLY78      -0.2717
     34  N         17.8020   67.9100   12.8340 N.am   79  CYS79      -0.1970
     35  CA        17.6240   66.5370   13.2700 C.3    79  CYS79       0.1712
     36  C         17.2680   66.5480   14.7570 C.2    79  CYS79       0.2296
     37  O         16.5980   65.6470   15.2630 O.2    79  CYS79      -0.2864
     38  CB        18.9190   65.7600   13.0270 C.3    79  CYS79       0.0983
     39  SG        19.0750   64.2420   13.9680 S.3    79  CYS79      -0.0798
     40  N         15.4660   69.0050   16.2670 N.3    81  PHE81      -0.1227
     41  CA        14.0740   69.4100   16.3890 C.3    81  PHE81       0.1736
     42  C         13.1460   68.2210   16.2100 C.2    81  PHE81       0.2595
     43  O         12.1900   68.0580   16.9620 O.2    81  PHE81      -0.2718
     44  CB        13.7270   70.4870   15.3540 C.3    81  PHE81       0.0547
     45  CG        12.2680   70.5210   14.9850 C.ar   81  PHE81      -0.0202
     46  CD1       11.7820   69.7410   13.9360 C.ar   81  PHE81      -0.0042
     47  CD2       11.3690   71.2800   15.7250 C.ar   81  PHE81      -0.0042
     48  CE1       10.4210   69.7120   13.6330 C.ar   81  PHE81      -0.0003
     49  CE2       10.0040   71.2600   15.4310 C.ar   81  PHE81      -0.0003
     50  CZ         9.5310   70.4720   14.3830 C.ar   81  PHE81      -0.0000
     51  N         13.4170   67.4000   15.2020 N.am   82  ARG82      -0.1966
     52  CA        12.5900   66.2280   14.9430 C.3    82  ARG82       0.1729
     53  C         12.6280   65.2550   16.1110 C.2    82  ARG82       0.2616
     54  O         11.6540   64.5540   16.3650 O.2    82  ARG82      -0.2715
     55  CB        13.0480   65.5120   13.6710 C.3    82  ARG82       0.0348
     56  CG        12.7310   66.2590   12.3890 C.3    82  ARG82       0.0492
     57  CD        11.2330   66.2760   12.0960 C.3    82  ARG82       0.2205
     58  NE        10.9400   66.9480   10.8300 N.pl3  82  ARG82      -0.0865
     59  CZ         9.7240   67.0680   10.3040 C.cat  82  ARG82       0.5346
     60  NH1        8.6720   66.5560   10.9320 N.pl3  82  ARG82       0.1354
     61  NH2        9.5600   67.7050    9.1520 N.pl3  82  ARG82       0.1354
     62  N         13.7540   65.2190   16.8190 N.am   83  SER83      -0.1950
     63  CA        13.9130   64.3290   17.9640 C.3    83  SER83       0.1924
     64  C         13.0230   64.7320   19.1310 C.2    83  SER83       0.2314
     65  O         12.4440   63.8720   19.7970 O.2    83  SER83      -0.2863
     66  CB        15.3680   64.2990   18.4180 C.3    83  SER83       0.2116
     67  OG        16.1800   63.6580   17.4550 O.3    83  SER83      -0.2180
     68  N         10.4240   66.2160   18.7260 N.3    85  GLU85      -0.1245
     69  CA         9.1150   65.9630   18.1320 C.3    85  GLU85       0.1567
     70  C          8.6920   64.5270   18.4220 C.2    85  GLU85       0.2260
     71  O          7.5930   64.2780   18.9180 O.2    85  GLU85      -0.2867
     72  CB         9.1830   66.1930   16.6110 C.3    85  GLU85       0.0388
     73  CG         8.0880   65.5040   15.7790 C.3    85  GLU85       0.1160
     74  CD         8.6040   64.3030   14.9690 C.2    85  GLU85       0.3649
     75  OE1        9.4740   64.4830   14.0820 O.co2  85  GLU85      -0.2457
     76  OE2        8.1330   63.1730   15.2140 O.co2  85  GLU85      -0.2457
     77  N         14.8550   57.1960   23.4620 N.3   117  HIS117     -0.1241
     78  CA        15.8690   57.0310   22.4370 C.3   117  HIS117      0.1621
     79  C         15.8210   55.6640   21.7840 C.2   117  HIS117      0.2264
     80  O         15.9270   55.5620   20.5650 O.2   117  HIS117     -0.2867
     81  CB        17.2580   57.3030   22.9960 C.3   117  HIS117      0.0745
     82  CG        17.5910   58.7560   23.0550 C.ar  117  HIS117      0.0817
     83  ND1       17.0950   59.5910   24.0320 N.ar  117  HIS117     -0.2268
     84  CD2       18.2980   59.5420   22.2090 C.ar  117  HIS117      0.1154
     85  CE1       17.4780   60.8300   23.7830 C.ar  117  HIS117      0.1986
     86  NE2       18.2090   60.8280   22.6820 N.ar  117  HIS117     -0.2212
     87  N         13.1000   55.7680   19.3620 N.3   120  ILE120     -0.1231
     88  CA        13.4030   56.6410   18.2380 C.3   120  ILE120      0.1692
     89  C         14.2530   55.9030   17.2020 C.2   120  ILE120      0.2592
     90  O         14.0000   55.9950   16.0000 O.2   120  ILE120     -0.2718
     91  CB        14.1300   57.9200   18.7180 C.3   120  ILE120      0.0266
     92  CG1       13.1000   58.8830   19.3040 C.3   120  ILE120      0.0019
     93  CG2       14.9260   58.5510   17.5690 C.3   120  ILE120      0.0020
     94  CD1       13.6990   60.0970   20.0240 C.3   120  ILE120      0.0001
     95  N         15.2560   55.1630   17.6580 N.am  121  TYR121     -0.1976
     96  CA        16.0960   54.4170   16.7280 C.3   121  TYR121      0.1639
     97  C         15.3830   53.2010   16.1280 C.2   121  TYR121      0.2290
     98  O         15.6960   52.7960   15.0220 O.2   121  TYR121     -0.2864
     99  CB        17.4060   54.0310   17.4150 C.3   121  TYR121      0.0560
    100  CG        18.1770   55.2610   17.8390 C.ar  121  TYR121     -0.0198
    101  CD1       18.2220   56.3860   17.0060 C.ar  121  TYR121     -0.0009
    102  CD2       18.8250   55.3260   19.0730 C.ar  121  TYR121     -0.0009
    103  CE1       18.8780   57.5360   17.3860 C.ar  121  TYR121      0.0417
    104  CE2       19.4960   56.4840   19.4670 C.ar  121  TYR121      0.0417
    105  CZ        19.5170   57.5870   18.6160 C.ar  121  TYR121      0.1957
    106  OH        20.1700   58.7510   18.9840 O.3   121  TYR121     -0.2866
    107  N         13.1160   54.8600   13.6000 N.3   124  LEU124     -0.1245
    108  CA        13.9420   55.4750   12.5730 C.3   124  LEU124      0.1561
    109  C         14.2960   54.4390   11.5020 C.2   124  LEU124      0.2260
    110  O         14.4320   54.7820   10.3270 O.2   124  LEU124     -0.2867
    111  CB        15.2180   56.0500   13.1860 C.3   124  LEU124      0.0270
    112  CG        16.1670   56.7550   12.2150 C.3   124  LEU124      0.0019
    113  CD1       15.5120   58.0240   11.6700 C.3   124  LEU124      0.0001
    114  CD2       17.4360   57.0990   12.9380 C.3   124  LEU124      0.0001
    115  N         12.3140   54.1490    8.3480 N.3   127  LEU127     -0.1245
    116  CA        12.5210   55.1540    7.3190 C.3   127  LEU127      0.1561
    117  C         13.8690   55.0070    6.6320 C.2   127  LEU127      0.2260
    118  O         14.2890   55.9110    5.8890 O.2   127  LEU127     -0.2867
    119  CB        12.4320   56.5670    7.9090 C.3   127  LEU127      0.0270
    120  CG        11.3490   56.9840    8.9130 C.3   127  LEU127      0.0019
    121  CD1       11.4170   58.5110    9.1310 C.3   127  LEU127      0.0001
    122  CD2        9.9920   56.5810    8.4100 C.3   127  LEU127      0.0001
    123  N         18.0510   57.8000    4.2370 N.3   133  VAL133     -0.1231
    124  CA        16.9310   57.9780    5.1400 C.3   133  VAL133      0.1692
    125  C         16.0160   59.1310    4.7360 C.2   133  VAL133      0.2592
    126  O         16.4670   60.1770    4.2590 O.2   133  VAL133     -0.2718
    127  CB        17.4700   58.2120    6.5870 C.3   133  VAL133      0.0266
    128  CG1       18.3620   59.4660    6.6160 C.3   133  VAL133      0.0020
    129  CG2       16.3170   58.3180    7.5880 C.3   133  VAL133      0.0020
    130  N         14.7230   58.9230    4.9380 N.am  134  LEU134     -0.1966
    131  CA        13.6950   59.9040    4.6260 C.3   134  LEU134      0.1728
    132  C         13.6860   61.0510    5.6420 C.2   134  LEU134      0.2616
    133  O         13.9130   60.8380    6.8280 O.2   134  LEU134     -0.2715
    134  CB        12.3250   59.2270    4.6450 C.3   134  LEU134      0.0311
    135  CG        11.9390   58.2290    3.5500 C.3   134  LEU134      0.0022
    136  CD1       10.6470   57.5370    3.9500 C.3   134  LEU134      0.0001
    137  CD2       11.7660   58.9560    2.2210 C.3   134  LEU134      0.0001
    138  N         13.4110   62.2640    5.1720 N.am  135  ILE135     -0.1963
    139  CA        13.3420   63.4370    6.0470 C.3   135  ILE135      0.1727
    140  C         12.1180   64.2620    5.6850 C.2   135  ILE135      0.2617
    141  O         11.5820   64.1210    4.5970 O.2   135  ILE135     -0.2715
    142  CB        14.5880   64.3280    5.9110 C.3   135  ILE135      0.0290
    143  CG1       14.7210   64.8210    4.4670 C.3   135  ILE135      0.0022
    144  CG2       15.8240   63.5520    6.3310 C.3   135  ILE135      0.0023
    145  CD1       15.8060   65.8590    4.2660 C.3   135  ILE135      0.0001
    146  N         11.6750   65.1130    6.6050 N.am  136  SER136     -0.1936
    147  CA        10.5040   65.9740    6.3950 C.3   136  SER136      0.2055
    148  C          9.2620   65.1770    6.0550 C.2   136  SER136      0.2642
    149  O          8.6920   65.3550    4.9750 O.2   136  SER136     -0.2714
    150  CB        10.7520   66.9590    5.2600 C.3   136  SER136      0.2130
    151  OG        12.0130   67.5760    5.3810 O.3   136  SER136     -0.2179
    152  N          8.8470   64.2990    6.9630 N.am  137  GLU137     -0.1976
    153  CA         7.6610   63.4670    6.7490 C.3   137  GLU137      0.1602
    154  C          7.6770   62.7090    5.4110 C.2   137  GLU137      0.2287
    155  O          6.6190   62.4340    4.8520 O.2   137  GLU137     -0.2864
    156  CB         6.4020   64.3300    6.7920 C.3   137  GLU137      0.0415
    157  CG         6.3110   65.2740    7.9760 C.3   137  GLU137      0.1163
    158  CD         5.9360   66.6920    7.5500 C.2   137  GLU137      0.3649
    159  OE1        6.8310   67.4110    7.0460 O.co2 137  GLU137     -0.2457
    160  OE2        4.7480   67.0780    7.7060 O.co2 137  GLU137     -0.2457
    161  N         17.6730   61.7550    2.3180 N.3   142  MET142     -0.1245
    162  CA        19.0760   62.1020    2.4680 C.3   142  MET142      0.1570
    163  C         19.9510   60.8430    2.4060 C.2   142  MET142      0.2261
    164  O         19.7240   59.8420    3.1050 O.2   142  MET142     -0.2867
    165  CB        19.3150   62.8590    3.7800 C.3   142  MET142      0.0387
    166  CG        20.6130   63.6680    3.7780 C.3   142  MET142      0.0595
    167  SD        20.7580   64.8320    5.1550 S.3   142  MET142     -0.1393
    168  CE        19.4000   65.9140    4.7790 C.3   142  MET142      0.0692
    169  N         25.6320   62.0930    4.4770 N.3   147  LEU147     -0.1245
    170  CA        25.7070   62.2160    5.9230 C.3   147  LEU147      0.1561
    171  C         27.0540   61.7480    6.4670 C.2   147  LEU147      0.2260
    172  O         27.5600   62.3030    7.4430 O.2   147  LEU147     -0.2867
    173  CB        24.6020   61.3910    6.5770 C.3   147  LEU147      0.0270
    174  CG        23.1680   61.9180    6.5220 C.3   147  LEU147      0.0019
    175  CD1       22.1960   60.8030    6.9010 C.3   147  LEU147      0.0001
    176  CD2       23.0270   63.1250    7.4640 C.3   147  LEU147      0.0001
    177  N         27.8480   60.2380   13.1200 N.3   157  PHE157     -0.1227
    178  CA        26.7460   60.2910   14.0630 C.3   157  PHE157      0.1736
    179  C         25.6480   59.3280   13.6270 C.2   157  PHE157      0.2595
    180  O         25.0120   58.6810   14.4540 O.2   157  PHE157     -0.2718
    181  CB        26.1680   61.7080   14.1200 C.3   157  PHE157      0.0547
    182  CG        26.3050   62.3700   15.4620 C.ar  157  PHE157     -0.0202
    183  CD1       25.7720   61.7760   16.6030 C.ar  157  PHE157     -0.0042
    184  CD2       26.9750   63.5840   15.5870 C.ar  157  PHE157     -0.0042
    185  CE1       25.9070   62.3850   17.8530 C.ar  157  PHE157     -0.0003
    186  CE2       27.1150   64.2000   16.8330 C.ar  157  PHE157     -0.0003
    187  CZ        26.5810   63.6010   17.9670 C.ar  157  PHE157     -0.0000
    188  N         25.4420   59.2330   12.3160 N.am  158  MET158     -0.1979
    189  CA        24.4000   58.3900   11.7550 C.3   158  MET158      0.1605
    190  C         24.7880   57.0010   11.2530 C.2   158  MET158      0.2287
    191  O         23.9250   56.1350   11.1410 O.2   158  MET158     -0.2864
    192  CB        23.7000   59.1430   10.6250 C.3   158  MET158      0.0413
    193  CG        22.8520   60.3060   11.0870 C.3   158  MET158      0.0598
    194  SD        21.4040   59.7430   11.9950 S.3   158  MET158     -0.1393
    195  CE        20.3750   59.1750   10.6290 C.3   158  MET158      0.0692
    196  N         23.5710   53.8360   13.0030 N.3   161  LYS161     -0.1245
    197  CA        22.1200   53.6690   13.0260 C.3   161  LYS161      0.1561
    198  C         21.6590   53.0030   11.7340 C.2   161  LYS161      0.2260
    199  O         20.7040   52.2310   11.7350 O.2   161  LYS161     -0.2867
    200  CB        21.4460   55.0190   13.2600 C.3   161  LYS161      0.0271
    201  CG        21.8590   55.6150   14.6120 C.3   161  LYS161      0.0035
    202  CD        21.2820   56.9850   14.8530 C.3   161  LYS161      0.0206
    203  CE        21.7980   57.5600   16.1720 C.3   161  LYS161      0.1093
    204  NZ        23.2070   58.0090   16.1010 N.3   161  LYS161     -0.1314
    205  N         25.8510   57.2170   20.9050 N.3   243  HIS243     -0.1241
    206  CA        25.2910   58.5190   20.5990 C.3   243  HIS243      0.1621
    207  C         25.6400   59.4920   21.7190 C.2   243  HIS243      0.2264
    208  O         26.1820   60.5720   21.4780 O.2   243  HIS243     -0.2867
    209  CB        23.7680   58.4370   20.4630 C.3   243  HIS243      0.0745
    210  CG        23.1380   59.7170   20.0060 C.ar  243  HIS243      0.0817
    211  ND1       23.0700   60.0800   18.6770 N.ar  243  HIS243     -0.2268
    212  CD2       22.5970   60.7440   20.7050 C.ar  243  HIS243      0.1154
    213  CE1       22.5160   61.2750   18.5790 C.ar  243  HIS243      0.1986
    214  NE2       22.2210   61.7000   19.7950 N.ar  243  HIS243     -0.2212
    215  N         19.2770   62.7530   28.6930 N.3   267  TYR267     -0.1241
    216  CA        20.6400   62.2240   28.7270 C.3   267  TYR267      0.1605
    217  C         21.3020   62.2270   30.1080 C.2   267  TYR267      0.2264
    218  O         21.1630   63.1780   30.8770 O.2   267  TYR267     -0.2867
    219  CB        21.5290   63.0020   27.7540 C.3   267  TYR267      0.0534
    220  CG        21.1850   62.8150   26.2920 C.ar  267  TYR267     -0.0201
    221  CD1       21.1350   61.5420   25.7230 C.ar  267  TYR267     -0.0009
    222  CD2       20.9460   63.9140   25.4650 C.ar  267  TYR267     -0.0009
    223  CE1       20.8600   61.3680   24.3660 C.ar  267  TYR267      0.0417
    224  CE2       20.6670   63.7510   24.1060 C.ar  267  TYR267      0.0417
    225  CZ        20.6280   62.4760   23.5640 C.ar  267  TYR267      0.1957
    226  OH        20.3730   62.3080   22.2210 O.3   267  TYR267     -0.2866
@<TRIPOS>BOND
     1   137   135    1
     2   161   162    1
     3   163   162    1
     4   163   164    2
     5   162   165    1
     6   135   136    1
     7   135   134    1
     8     7     9   ar
     9     7     6   ar
    10     9    11   ar
    11   166   165    1
    12   166   167    1
    13     1     2    1
    14     5     6    1
    15     5     2    1
    16   123   124    1
    17     6     8   ar
    18   126   125    2
    19   145   143    1
    20    11    10   ar
    21   143   142    1
    22   169   170    1
    23   141   140    2
    24   131   134    1
    25   131   130    1
    26   131   132    1
    27     4     3    2
    28   125   130   am
    29   125   124    1
    30   168   167    1
    31     8    10   ar
    32   155   154    2
    33   149   148    2
    34     2     3    1
    35   124   127    1
    36   138   132   am
    37   138   139    1
    38   150   151    1
    39   150   147    1
    40   154   153    1
    41   132   133    2
    42    15    14    2
    43   140   139    1
    44   140   146   am
    45   118   117    2
    46   142   139    1
    47   142   144    1
    48   170   171    1
    49   170   173    1
    50   148   147    1
    51   148   152   am
    52   147   146    1
    53   171   172    2
    54   174   173    1
    55   174   175    1
    56   174   176    1
    57    14    13    1
    58   127   128    1
    59   127   129    1
    60    29    27    1
    61   117   116    1
    62   153   156    1
    63   153   152    1
    64   156   157    1
    65   159   158   ar
    66   116   119    1
    67   116   115    1
    68    27    26    1
    69    12    13    1
    70   158   160   ar
    71   158   157    1
    72    13    16    1
    73    16    17    1
    74   119   120    1
    75   122   120    1
    76    19    17   ar
    77    19    21   ar
    78    26    28    1
    79    26    23    1
    80    17    18   ar
    81   120   121    1
    82    61    59    1
    83    23    22    1
    84    23    24    1
    85    21    20   ar
    86    18    20   ar
    87    59    58    2
    88    59    60    1
    89   110   109    2
    90   192   193    1
    91   192   189    1
    92   195   194    1
    93    58    57    1
    94    24    25    2
    95   193   194    1
    96   191   190    2
    97   190   189    1
    98   109   108    1
    99   113   112    1
   100   198   199    2
   101   198   197    1
   102   189   188    1
   103    57    56    1
   104   112   114    1
   105   112   111    1
   106    31    32    1
   107    31    30    1
   108   188   179   am
   109    56    55    1
   110   108   111    1
   111   108   107    1
   112    32    34   am
   113    32    33    2
   114    34    35    1
   115   196   197    1
   116   197   200    1
   117    38    35    1
   118    38    39    1
   119   177   178    1
   120   200   201    1
   121    35    36    1
   122   179   178    1
   123   179   180    2
   124    48    46   ar
   125    48    50   ar
   126    55    52    1
   127    46    45   ar
   128   178   181    1
   129    75    74   ar
   130   181   182    1
   131    50    49   ar
   132   201   202    1
   133    36    37    2
   134   202   203    1
   135    52    51    1
   136    52    53    1
   137    74    76   ar
   138    74    73    1
   139    45    44    1
   140    45    47   ar
   141    98    97    2
   142    51    42   am
   143    44    41    1
   144    49    47   ar
   145   182   184   ar
   146   182   183   ar
   147   184   186   ar
   148    73    72    1
   149    90    89    2
   150   204   203    1
   151    53    54    2
   152    53    62   am
   153    97    96    1
   154    42    41    1
   155    42    43    2
   156    40    41    1
   157   183   185   ar
   158    72    69    1
   159    96    99    1
   160    96    95    1
   161    62    63    1
   162   186   187   ar
   163   101   103   ar
   164   101   100   ar
   165    89    95   am
   166    89    88    1
   167   103   105   ar
   168    99   100    1
   169    67    66    1
   170    93    91    1
   171   100   102   ar
   172   185   187   ar
   173    63    66    1
   174    63    64    1
   175    69    70    1
   176    69    68    1
   177    88    91    1
   178    88    87    1
   179    70    71    2
   180   213   211   ar
   181   213   214   ar
   182   105   106    1
   183   105   104   ar
   184   211   210   ar
   185    91    92    1
   186   102   104   ar
   187    64    65    2
   188    92    94    1
   189   214   212   ar
   190   210   209    1
   191   210   212   ar
   192   209   206    1
   193    80    79    2
   194   206   205    1
   195   206   207    1
   196   208   207    2
   197    79    78    1
   198    84    86   ar
   199    84    82   ar
   200   226   225    1
   201    78    81    1
   202    78    77    1
   203    86    85   ar
   204    81    82    1
   205    82    83   ar
   206   225   224   ar
   207   225   223   ar
   208    85    83   ar
   209   224   222   ar
   210   223   221   ar
   211   222   220   ar
   212   221   220   ar
   213   220   219    1
   214   219   216    1
   215   215   216    1
   216   216   217    1
   217   217   218    2
