@<TRIPOS>MOLECULE
tmp/3d6nB00.pdb
 134 129 0 0 0
SMALL
GASTEIGER

@<TRIPOS>ATOM
      1  N          1.2380   10.8320   83.1450 N.3    45  SER45      -0.1217
      2  CA         0.4720   12.0080   82.8480 C.3    45  SER45       0.1889
      3  C         -0.1460   11.6410   81.5630 C.2    45  SER45       0.2288
      4  O          0.4540   11.8420   80.5100 O.2    45  SER45      -0.2866
      5  CB         1.3300   13.2250   82.6190 C.3    45  SER45       0.2089
      6  OG         0.5380   14.2220   81.9650 O.3    45  SER45      -0.2183
      7  N         -2.8070   12.7960   79.8990 N.3    47  ARG47      -0.1231
      8  CA        -3.0770   13.8350   78.9210 C.3    47  ARG47       0.1694
      9  C         -1.8780   14.1810   78.0640 C.2    47  ARG47       0.2592
     10  O         -2.0110   14.3220   76.8720 O.2    47  ARG47      -0.2718
     11  CB        -3.6250   15.0890   79.6320 C.3    47  ARG47       0.0321
     12  CG        -4.9910   14.7560   80.3150 C.3    47  ARG47       0.0489
     13  CD        -5.5540   15.9440   81.1600 C.3    47  ARG47       0.2205
     14  NE        -4.9640   17.2170   80.6620 N.pl3  47  ARG47      -0.0865
     15  CZ        -5.6320   18.3570   80.4640 C.cat  47  ARG47       0.5346
     16  NH1       -6.9260   18.4350   80.7260 N.pl3  47  ARG47       0.1354
     17  NH2       -4.9880   19.4110   79.9880 N.pl3  47  ARG47       0.1354
     18  N         -0.7190   14.3540   78.6770 N.am   48  THR48      -0.1953
     19  CA         0.5040   14.6590   77.9510 C.3    48  THR48       0.1897
     20  C          0.9950   13.4680   77.1450 C.2    48  THR48       0.2313
     21  O          1.3870   13.6550   76.0480 O.2    48  THR48      -0.2863
     22  CB         1.5950   15.0790   78.9670 C.3    48  THR48       0.1794
     23  OG1        1.0780   16.2030   79.6720 O.3    48  THR48      -0.2208
     24  CG2        2.9320   15.4860   78.3100 C.3    48  THR48       0.0378
     25  N          9.1650   11.5010   80.8230 N.3    97  ARG97      -0.1245
     26  CA         8.6320   12.3200   81.9010 C.3    97  ARG97       0.1563
     27  C          9.0630   11.6750   83.2060 C.2    97  ARG97       0.2260
     28  O          8.7340   10.5310   83.4420 O.2    97  ARG97      -0.2867
     29  CB         7.1420   12.3370   81.8360 C.3    97  ARG97       0.0307
     30  CG         6.5410   13.0920   83.0310 C.3    97  ARG97       0.0489
     31  CD         5.5320   13.9140   82.4460 C.3    97  ARG97       0.2205
     32  NE         4.5270   14.4040   83.3330 N.pl3  97  ARG97      -0.0865
     33  CZ         3.8320   15.4880   83.0530 C.cat  97  ARG97       0.5346
     34  NH1        4.1190   16.2000   81.9450 N.pl3  97  ARG97       0.1354
     35  NH2        2.8830   15.8540   83.8920 N.pl3  97  ARG97       0.1354
     36  N          9.4720   21.7490   80.9890 N.3   126  HIS126     -0.1241
     37  CA         8.4390   21.0830   80.2170 C.3   126  HIS126      0.1621
     38  C          8.3300   21.8450   78.8870 C.2   126  HIS126      0.2264
     39  O          7.3870   22.5940   78.6720 O.2   126  HIS126     -0.2867
     40  CB         7.1070   21.1080   80.9740 C.3   126  HIS126      0.0745
     41  CG         6.0870   20.2160   80.3660 C.ar  126  HIS126      0.0817
     42  ND1        4.9330   19.8200   81.0240 N.ar  126  HIS126     -0.2268
     43  CD2        6.0720   19.6040   79.1600 C.ar  126  HIS126      0.1154
     44  CE1        4.2350   19.0400   80.2220 C.ar  126  HIS126      0.1986
     45  NE2        4.9030   18.8890   79.0930 N.ar  126  HIS126     -0.2212
     46  N          5.1180   22.1250   76.7580 N.3   129  GLN129     -0.1245
     47  CA         3.9760   22.8690   77.3430 C.3   129  GLN129      0.1566
     48  C          4.1820   24.3870   77.2250 C.2   129  GLN129      0.2260
     49  O          3.2320   25.1380   76.9570 O.2   129  GLN129     -0.2867
     50  CB         3.6750   22.4470   78.7910 C.3   129  GLN129      0.0367
     51  CG         2.3220   22.9680   79.2850 C.3   129  GLN129      0.0905
     52  CD         1.2000   22.4470   78.4150 C.2   129  GLN129      0.2608
     53  OE1        1.1530   21.2470   78.1970 O.2   129  GLN129     -0.2717
     54  NE2        0.3070   23.3400   77.8750 N.am  129  GLN129     -0.0878
     55  N          7.4120   25.4560   91.9660 N.3   157  HIS157     -0.1226
     56  CA         7.4410   24.0370   91.5710 C.3   157  HIS157      0.1752
     57  C          7.0590   23.8730   90.1230 C.2   157  HIS157      0.2597
     58  O          6.8140   22.7800   89.6930 O.2   157  HIS157     -0.2718
     59  CB         6.4250   23.2500   92.4230 C.3   157  HIS157      0.0759
     60  CG         6.8350   23.1710   93.8610 C.ar  157  HIS157      0.0818
     61  ND1        6.4470   24.0930   94.7960 N.ar  157  HIS157     -0.2268
     62  CD2        7.6750   22.3340   94.4970 C.ar  157  HIS157      0.1154
     63  CE1        6.9910   23.8130   95.9560 C.ar  157  HIS157      0.1986
     64  NE2        7.7800   22.7770   95.7900 N.ar  157  HIS157     -0.2212
     65  N          7.0220   24.9650   89.3790 N.am  158  SER158     -0.1938
     66  CA         6.3960   24.9500   88.0810 C.3   158  SER158      0.2055
     67  C          7.3800   24.8340   86.9200 C.2   158  SER158      0.2643
     68  O          7.9950   25.8250   86.5350 O.2   158  SER158     -0.2714
     69  CB         5.5250   26.1760   87.8770 C.3   158  SER158      0.2130
     70  OG         4.6970   25.9930   86.7180 O.3   158  SER158     -0.2179
     71  N          7.4480   23.6510   86.3260 N.am  159  ARG159     -0.1963
     72  CA         8.2610   23.4310   85.1170 C.3   159  ARG159      0.1729
     73  C          7.5750   24.0500   83.8750 C.2   159  ARG159      0.2616
     74  O          8.2330   24.4400   82.9250 O.2   159  ARG159     -0.2715
     75  CB         8.4960   21.9060   84.9260 C.3   159  ARG159      0.0348
     76  CG         7.2130   21.0840   84.9170 C.3   159  ARG159      0.0492
     77  CD         7.4890   19.5750   84.6550 C.3   159  ARG159      0.2205
     78  NE         6.2890   18.8280   84.9480 N.pl3 159  ARG159     -0.0865
     79  CZ         6.2490   17.5910   85.4530 C.cat 159  ARG159      0.5346
     80  NH1        7.3530   16.9060   85.6650 N.pl3 159  ARG159      0.1354
     81  NH2        5.0850   17.0200   85.7170 N.pl3 159  ARG159      0.1354
     82  N          6.2460   24.1620   83.9070 N.am  160  VAL160     -0.1977
     83  CA         5.5020   24.8380   82.8280 C.3   160  VAL160      0.1596
     84  C          5.8280   26.3470   82.7570 C.2   160  VAL160      0.2287
     85  O          6.0460   26.8920   81.6770 O.2   160  VAL160     -0.2864
     86  CB         3.9650   24.6250   82.9740 C.3   160  VAL160      0.0276
     87  CG1        3.2360   25.5300   81.9630 C.3   160  VAL160      0.0022
     88  CG2        3.6020   23.1000   82.7470 C.3   160  VAL160      0.0022
     89  N         -1.9700   27.9140   87.1950 N.3   212  LEU212     -0.1231
     90  CA        -1.1350   26.7350   87.3330 C.3   212  LEU212      0.1693
     91  C         -1.8150   25.7950   88.3150 C.2   212  LEU212      0.2591
     92  O         -2.3840   26.2260   89.3020 O.2   212  LEU212     -0.2718
     93  CB         0.2440   27.1080   87.8640 C.3   212  LEU212      0.0284
     94  CG         1.0890   27.9940   86.9070 C.3   212  LEU212      0.0019
     95  CD1        2.3510   28.5530   87.6150 C.3   212  LEU212      0.0001
     96  CD2        1.3840   27.2670   85.5480 C.3   212  LEU212      0.0001
     97  N         -1.7220   24.4960   88.0530 N.am  213  ARG213     -0.1980
     98  CA        -2.3980   23.5470   88.8860 C.3   213  ARG213      0.1597
     99  C         -1.8900   23.5570   90.3430 C.2   213  ARG213      0.2287
    100  O         -0.7050   23.4470   90.6230 O.2   213  ARG213     -0.2864
    101  CB        -2.2580   22.1880   88.2460 C.3   213  ARG213      0.0334
    102  CG        -3.1090   21.1210   88.9530 C.3   213  ARG213      0.0492
    103  CD        -2.8760   19.7240   88.3490 C.3   213  ARG213      0.2205
    104  NE        -3.3940   18.7620   89.3370 N.pl3 213  ARG213     -0.0865
    105  CZ        -4.6970   18.5180   89.5210 C.cat 213  ARG213      0.5346
    106  NH1       -5.6170   19.1210   88.7690 N.pl3 213  ARG213      0.1354
    107  NH2       -5.0830   17.6690   90.4470 N.pl3 213  ARG213      0.1354
    108  N         -1.3090   21.6240   93.5240 N.3   215  GLN215     -0.1245
    109  CA        -1.2630   20.2310   94.1010 C.3   215  GLN215      0.1566
    110  C         -1.6470   20.1800   95.5570 C.2   215  GLN215      0.2260
    111  O         -1.0840   20.9290   96.3750 O.2   215  GLN215     -0.2867
    112  CB         0.1400   19.5980   93.9640 C.3   215  GLN215      0.0367
    113  CG         0.6200   19.6160   92.5160 C.3   215  GLN215      0.0905
    114  CD         1.8850   18.7830   92.2890 C.2   215  GLN215      0.2608
    115  OE1        2.8180   19.2470   91.6080 O.2   215  GLN215     -0.2717
    116  NE2        1.9400   17.5620   92.8590 N.am  215  GLN215     -0.0878
    117  N         -2.6750   25.0280   81.7560 N.3   250  PRO250     -0.2102
    118  CA        -1.8950   23.8150   81.4810 C.3   250  PRO250      0.1504
    119  C         -2.3910   22.4120   81.9300 C.2   250  PRO250      0.2576
    120  O         -2.7740   21.5690   81.0870 O.2   250  PRO250     -0.2718
    121  CB        -0.4560   24.1450   81.9150 C.3   250  PRO250      0.0282
    122  CG        -0.4170   25.6140   82.0950 C.3   250  PRO250      0.0208
    123  CD        -1.8390   26.0900   82.3590 C.3   250  PRO250      0.0893
    124  N         -2.3480   22.0640   83.1830 N.am  251  GLY251     -0.1943
    125  CA        -2.6460   20.5900   83.3780 C.3   251  GLY251      0.1998
    126  C         -4.1600   20.4380   83.4290 C.2   251  GLY251      0.2480
    127  O         -4.9100   21.3380   82.9780 O.2   251  GLY251     -0.2729
    128  N         -4.6100   19.3420   84.0490 N.am  252  PRO252     -0.2726
    129  CA        -6.0030   19.1920   84.4040 C.3   252  PRO252      0.1402
    130  C         -6.3720   20.1870   85.5250 C.2   252  PRO252      0.2269
    131  O         -5.5790   20.4750   86.4040 O.2   252  PRO252     -0.2865
    132  CB        -6.0910   17.7060   84.8820 C.3   252  PRO252      0.0296
    133  CG        -4.7620   17.3720   85.3500 C.3   252  PRO252      0.0237
    134  CD        -3.7750   18.1910   84.4980 C.3   252  PRO252      0.0939
@<TRIPOS>BOND
     1    21    20    2
     2    46    47    1
     3    10     9    2
     4    49    48    2
     5    20    19    1
     6    48    47    1
     7    47    50    1
     8    54    52   am
     9    19    18    1
    10    19    22    1
    11     9    18   am
    12     9     8    1
    13    53    52    2
    14    24    22    1
    15    52    51    1
    16    39    38    2
    17    50    51    1
    18    38    37    1
    19     8    11    1
    20     8     7    1
    21    22    23    1
    22    45    43   ar
    23    45    44   ar
    24    43    41   ar
    25    11    12    1
    26    17    15    1
    27    37    40    1
    28    37    36    1
    29    44    42   ar
    30    12    13    1
    31    41    40    1
    32    41    42   ar
    33    15    14    2
    34    15    16    1
    35     4     3    2
    36    14    13    1
    37    25    26    1
    38   120   119    2
    39   118   117    1
    40   118   121    1
    41   118   119    1
    42     3     2    1
    43    85    84    2
    44   117   123    1
    45    29    26    1
    46    29    30    1
    47    26    27    1
    48   121   122    1
    49   119   124   am
    50    34    33    1
    51    87    86    1
    52     6     5    1
    53   122   123    1
    54    31    30    1
    55    31    32    1
    56     5     2    1
    57    88    86    1
    58    84    83    1
    59    83    86    1
    60    83    82    1
    61     2     1    1
    62    74    73    2
    63   127   126    2
    64    33    32    2
    65    33    35    1
    66   124   125    1
    67    27    28    2
    68   125   126    1
    69   126   128   am
    70    73    82   am
    71    73    72    1
    72   128   129    1
    73   128   134    1
    74   129   132    1
    75   129   130    1
    76   134   133    1
    77    77    76    1
    78    77    78    1
    79   132   133    1
    80    76    75    1
    81    75    72    1
    82    78    79    2
    83    72    71    1
    84    79    80    1
    85    79    81    1
    86   130   131    2
    87    96    94    1
    88    71    67   am
    89    68    67    2
    90    70    69    1
    91    94    95    1
    92    94    93    1
    93    67    66    1
    94    89    90    1
    95    90    93    1
    96    90    91    1
    97    69    66    1
    98    97    91   am
    99    97    98    1
   100    66    65    1
   101   101    98    1
   102   101   102    1
   103    91    92    2
   104   103   102    1
   105   103   104    1
   106   106   105    1
   107    98    99    1
   108   104   105    2
   109    65    57   am
   110   105   107    1
   111    58    57    2
   112    57    56    1
   113    99   100    2
   114    56    55    1
   115    56    59    1
   116   115   114    2
   117   114   113    1
   118   114   116   am
   119    59    60    1
   120   113   112    1
   121   108   109    1
   122    60    62   ar
   123    60    61   ar
   124   112   109    1
   125   109   110    1
   126    62    64   ar
   127    61    63   ar
   128   110   111    2
   129    64    63   ar
