@<TRIPOS>MOLECULE
tmp/3d6nA00.pdb
 128 122 0 0 0
SMALL
GASTEIGER

@<TRIPOS>ATOM
      1  N         39.0490   20.4010  110.1600 N.3    61  HIS61      -0.1241
      2  CA        37.8110   19.9060  109.5400 C.3    61  HIS61       0.1621
      3  C         38.0290   18.9610  108.3350 C.2    61  HIS61       0.2264
      4  O         38.0170   19.3910  107.1940 O.2    61  HIS61      -0.2867
      5  CB        36.9810   21.0910  109.1360 C.3    61  HIS61       0.0745
      6  CG        35.5550   20.7750  108.9020 C.ar   61  HIS61       0.0817
      7  ND1       34.5680   21.7370  108.9490 N.ar   61  HIS61      -0.2268
      8  CD2       34.9320   19.6030  108.6540 C.ar   61  HIS61       0.1154
      9  CE1       33.3930   21.1650  108.7560 C.ar   61  HIS61       0.1986
     10  NE2       33.5920   19.8730  108.5900 N.ar   61  HIS61      -0.2212
     11  N         37.1320   14.9380  106.6320 N.3    63  HIS63      -0.1241
     12  CA        36.4510   13.6560  106.6040 C.3    63  HIS63       0.1621
     13  C         37.3850   12.6140  106.0230 C.2    63  HIS63       0.2264
     14  O         37.7400   12.6480  104.8330 O.2    63  HIS63      -0.2867
     15  CB        35.1610   13.7430  105.7860 C.3    63  HIS63       0.0745
     16  CG        34.1620   14.6770  106.3840 C.ar   63  HIS63       0.0817
     17  ND1       33.1960   14.2630  107.2830 N.ar   63  HIS63      -0.2268
     18  CD2       34.0170   16.0190  106.2680 C.ar   63  HIS63       0.1154
     19  CE1       32.4830   15.3060  107.6770 C.ar   63  HIS63       0.1986
     20  NE2       32.9530   16.3780  107.0680 N.ar   63  HIS63      -0.2212
     21  N         36.5690    9.3490  106.2630 N.3    65  ARG65      -0.1245
     22  CA        35.6900    8.2590  105.7390 C.3    65  ARG65       0.1563
     23  C         36.0930    6.8820  106.2840 C.2    65  ARG65       0.2260
     24  O         35.7970    5.8190  105.6820 O.2    65  ARG65      -0.2867
     25  CB        35.6770    8.2390  104.2030 C.3    65  ARG65       0.0307
     26  CG        35.4200    9.6040  103.5090 C.3    65  ARG65       0.0489
     27  CD        34.0600   10.1530  103.9310 C.3    65  ARG65       0.2205
     28  NE        33.6270   11.2710  103.0870 N.pl3  65  ARG65      -0.0865
     29  CZ        32.7550   12.2090  103.4540 C.cat  65  ARG65       0.5346
     30  NH1       32.2230   12.1990  104.6760 N.pl3  65  ARG65       0.1354
     31  NH2       32.4300   13.1720  102.5960 N.pl3  65  ARG65       0.1354
     32  N         31.4600   11.5250  111.5760 N.3    95  ASN95      -0.1240
     33  CA        30.3560   10.9530  110.8080 C.3    95  ASN95       0.1653
     34  C         30.8040    9.7340  109.9660 C.2    95  ASN95       0.2266
     35  O         30.4630    9.6080  108.7960 O.2    95  ASN95      -0.2867
     36  CB        29.6740   12.0290  109.9450 C.3    95  ASN95       0.1155
     37  CG        30.5860   12.6020  108.8430 C.2    95  ASN95       0.2627
     38  OD1       31.8030   12.6140  108.9630 O.2    95  ASN95      -0.2716
     39  ND2       29.9620   13.1010  107.7570 N.am   95  ASN95      -0.0877
     40  N         28.1550   16.9570  112.9540 N.3   153  ASP153     -0.1225
     41  CA        28.5560   17.0600  111.5550 C.3   153  ASP153      0.1805
     42  C         28.5400   15.6900  110.8200 C.2   153  ASP153      0.2598
     43  O         29.2040   14.7500  111.2860 O.2   153  ASP153     -0.2718
     44  CB        29.9660   17.6610  111.5250 C.3   153  ASP153      0.1424
     45  CG        30.4600   17.9580  110.1150 C.2   153  ASP153      0.3668
     46  OD1       31.5730   17.5370  109.7740 O.co2 153  ASP153     -0.2456
     47  OD2       29.7550   18.6360  109.3380 O.co2 153  ASP153     -0.2456
     48  N         27.8170   15.5780  109.6880 N.am  154  GLY154     -0.1957
     49  CA        27.1810   16.7260  108.9960 C.3   154  GLY154      0.1869
     50  C         25.7080   17.0020  109.2740 C.2   154  GLY154      0.2309
     51  O         25.0100   17.5720  108.4320 O.2   154  GLY154     -0.2863
     52  N         27.7970   22.3200  112.9240 N.3   180  HIS180     -0.1241
     53  CA        27.2490   22.4130  111.5480 C.3   180  HIS180      0.1621
     54  C         25.8930   23.1000  111.7060 C.2   180  HIS180      0.2264
     55  O         24.8830   22.4720  112.1180 O.2   180  HIS180     -0.2867
     56  CB        27.0090   21.0130  110.9220 C.3   180  HIS180      0.0745
     57  CG        26.2310   21.0490  109.6310 C.ar  180  HIS180      0.0817
     58  ND1       26.8390   21.0950  108.3900 N.ar  180  HIS180     -0.2268
     59  CD2       24.8940   21.0730  109.3890 C.ar  180  HIS180      0.1154
     60  CE1       25.9170   21.1580  107.4440 C.ar  180  HIS180      0.1986
     61  NE2       24.7290   21.1350  108.0190 N.ar  180  HIS180     -0.2212
     62  N         31.1000   26.3920  109.1210 N.3   232  HIS232     -0.1241
     63  CA        31.4980   26.7740  107.7370 C.3   232  HIS232      0.1621
     64  C         30.5610   27.8460  107.3810 C.2   232  HIS232      0.2264
     65  O         29.4140   27.5530  107.0380 O.2   232  HIS232     -0.2867
     66  CB        31.4950   25.6010  106.6810 C.3   232  HIS232      0.0745
     67  CG        30.6750   24.4060  107.0980 C.ar  232  HIS232      0.0817
     68  ND1       29.4580   24.5250  107.7490 N.ar  232  HIS232     -0.2268
     69  CD2       30.9080   23.0730  106.9840 C.ar  232  HIS232      0.1154
     70  CE1       28.9880   23.3190  108.0300 C.ar  232  HIS232      0.1986
     71  NE2       29.8350   22.4200  107.5570 N.ar  232  HIS232     -0.2212
     72  N         27.4970   21.2060   98.0040 N.3   277  VAL277     -0.1231
     73  CA        28.1300   21.2790   99.3090 C.3   277  VAL277      0.1692
     74  C         27.1280   21.8590  100.3270 C.2   277  VAL277      0.2592
     75  O         26.2020   22.5830   99.9380 O.2   277  VAL277     -0.2718
     76  CB        29.4840   22.0990   99.2370 C.3   277  VAL277      0.0266
     77  CG1       29.2900   23.4980   98.5900 C.3   277  VAL277      0.0020
     78  CG2       30.1920   22.1670  100.5920 C.3   277  VAL277      0.0020
     79  N         27.2970   21.4800  101.6060 N.am  278  ASN278     -0.1974
     80  CA        26.5180   21.9530  102.7570 C.3   278  ASN278      0.1688
     81  C         27.4920   22.6800  103.7080 C.2   278  ASN278      0.2292
     82  O         28.4580   22.0730  104.1640 O.2   278  ASN278     -0.2864
     83  CB        25.8390   20.7740  103.4960 C.3   278  ASN278      0.1181
     84  CG        24.6860   20.1350  102.6890 C.2   278  ASN278      0.2629
     85  OD1       24.2010   20.6730  101.6790 O.2   278  ASN278     -0.2716
     86  ND2       24.2430   18.9900  103.1490 N.am  278  ASN278     -0.0877
     87  N         37.2340   21.3380  105.2590 N.3   305  ASP305     -0.1239
     88  CA        36.0480   20.5000  105.1200 C.3   305  ASP305      0.1674
     89  C         36.2530   19.4930  103.9550 C.2   305  ASP305      0.2266
     90  O         35.3180   19.2140  103.1680 O.2   305  ASP305     -0.2867
     91  CB        34.7820   21.3340  104.8910 C.3   305  ASP305      0.1410
     92  CG        33.5130   20.4980  105.0320 C.2   305  ASP305      0.3668
     93  OD1       33.5930   19.3710  105.5840 O.co2 305  ASP305     -0.2456
     94  OD2       32.4300   20.9310  104.5740 O.co2 305  ASP305     -0.2456
     95  N         35.9140   16.7480  101.9850 N.3   307  ALA307     -0.1245
     96  CA        34.7480   15.8630  102.0000 C.3   307  ALA307      0.1562
     97  C         34.6690   15.0360  100.7180 C.2   307  ALA307      0.2260
     98  O         33.8740   15.3770   99.8160 O.2   307  ALA307     -0.2867
     99  CB        33.4210   16.6610  102.2320 C.3   307  ALA307      0.0290
    100  N         33.8060   12.3400   97.9650 N.3   309  HIS309     -0.1241
    101  CA        32.7200   11.4750   97.4810 C.3   309  HIS309      0.1621
    102  C         33.1070   10.9220   96.1270 C.2   309  HIS309      0.2264
    103  O         33.8410   11.5770   95.3500 O.2   309  HIS309     -0.2867
    104  CB        31.4470   12.2750   97.3770 C.3   309  HIS309      0.0745
    105  CG        30.8800   12.6840   98.7030 C.ar  309  HIS309      0.0817
    106  ND1       30.3170   11.7790   99.5910 N.ar  309  HIS309     -0.2268
    107  CD2       30.7870   13.9030   99.2920 C.ar  309  HIS309      0.1154
    108  CE1       29.8850   12.4310  100.6610 C.ar  309  HIS309      0.1986
    109  NE2       30.1470   13.7230  100.4980 N.ar  309  HIS309     -0.2212
    110  N         25.8460   13.4140   96.6220 N.3   321  MET321     -0.1231
    111  CA        26.3080   13.6620   97.9910 C.3   321  MET321      0.1687
    112  C         26.9560   15.0620   98.0890 C.2   321  MET321      0.2434
    113  O         27.7210   15.4720   97.1980 O.2   321  MET321     -0.2733
    114  CB        27.2930   12.5790   98.4080 C.3   321  MET321      0.0400
    115  CG        26.7090   11.1770   98.4900 C.3   321  MET321      0.0596
    116  SD        25.3370   11.0960   99.6490 S.3   321  MET321     -0.1393
    117  CE        26.1150   11.2200  101.2850 C.3   321  MET321      0.0692
    118  N         26.6070   15.8230   99.1400 N.am  322  PRO322     -0.2718
    119  CA        27.2490   17.1460   99.3330 C.3   322  PRO322      0.1535
    120  C         28.6960   17.0360   99.8470 C.2   322  PRO322      0.2599
    121  O         28.9930   16.1920  100.6880 O.2   322  PRO322     -0.2715
    122  CB        26.3450   17.8590  100.3590 C.3   322  PRO322      0.0310
    123  CG        25.4420   16.7390  100.9840 C.3   322  PRO322      0.0237
    124  CD        25.6010   15.4750  100.1850 C.3   322  PRO322      0.0939
    125  N         29.6030   17.8570   99.3030 N.am  323  GLY323     -0.1955
    126  CA        30.9830   17.8830   99.7750 C.3   323  GLY323      0.1869
    127  C         31.9660   18.1650   98.6750 C.2   323  GLY323      0.2309
    128  O         31.7320   17.7580   97.5220 O.2   323  GLY323     -0.2863
@<TRIPOS>BOND
     1   103   102    2
     2   102   101    1
     3   110   111    1
     4   113   112    2
     5   104   101    1
     6   104   105    1
     7   101   100    1
     8   128   127    2
     9   111   112    1
    10   111   114    1
    11    72    73    1
    12   112   118   am
    13   114   115    1
    14   115   116    1
    15    77    76    1
    16   127   126    1
    17   105   107   ar
    18   105   106   ar
    19   118   119    1
    20   118   124    1
    21    76    73    1
    22    76    78    1
    23   107   109   ar
    24   125   126    1
    25   125   120   am
    26    73    74    1
    27   119   120    1
    28   119   122    1
    29   106   108   ar
    30   116   117    1
    31    98    97    2
    32   120   121    2
    33    75    74    2
    34   124   123    1
    35    74    79   am
    36   122   123    1
    37   109   108   ar
    38    97    96    1
    39    79    80    1
    40    85    84    2
    41    95    96    1
    42    96    99    1
    43    31    29    1
    44    84    86   am
    45    84    83    1
    46    80    83    1
    47    80    81    1
    48    28    29    2
    49    28    27    1
    50    90    89    2
    51    29    30    1
    52    26    27    1
    53    26    25    1
    54    81    82    2
    55    89    88    1
    56    25    22    1
    57    94    92   ar
    58    14    13    2
    59    91    92    1
    60    91    88    1
    61    92    93   ar
    62    88    87    1
    63    24    23    2
    64    22    21    1
    65    22    23    1
    66    15    16    1
    67    15    12    1
    68    13    12    1
    69    18    16   ar
    70    18    20   ar
    71    16    17   ar
    72    12    11    1
    73    66    67    1
    74    66    63    1
    75    69    67   ar
    76    69    71   ar
    77    65    64    2
    78    20    19   ar
    79    67    68   ar
    80     4     3    2
    81    17    19   ar
    82    64    63    1
    83    60    61   ar
    84    60    58   ar
    85    71    70   ar
    86    63    62    1
    87    68    70   ar
    88    39    37   am
    89    61    59   ar
    90     3     2    1
    91    58    57   ar
    92    51    50    2
    93    10     8   ar
    94    10     9   ar
    95     8     6   ar
    96     9     7   ar
    97    35    34    2
    98    37    38    2
    99    37    36    1
   100     6     7   ar
   101     6     5    1
   102    49    50    1
   103    49    48    1
   104     5     2    1
   105    47    45   ar
   106    59    57   ar
   107     2     1    1
   108    57    56    1
   109    48    42   am
   110    46    45   ar
   111    36    33    1
   112    34    33    1
   113    45    44    1
   114    33    32    1
   115    42    43    2
   116    42    41    1
   117    56    53    1
   118    44    41    1
   119    53    54    1
   120    53    52    1
   121    41    40    1
   122    54    55    2
