@<TRIPOS>MOLECULE
tmp/3d6qA02.pdb
 125 123 0 0 0
SMALL
GASTEIGER

@<TRIPOS>ATOM
      1  N         32.2860    6.5730    7.4230 N.3    11  GLN11      -0.1231
      2  CA        33.0190    5.3120    7.4010 C.3    11  GLN11       0.1698
      3  C         32.1100    4.0970    7.4760 C.2    11  GLN11       0.2592
      4  O         32.4610    3.0300    6.9660 O.2    11  GLN11      -0.2718
      5  CB        34.0330    5.2510    8.5500 C.3    11  GLN11       0.0381
      6  CG        35.1690    6.2600    8.4710 C.3    11  GLN11       0.0905
      7  CD        36.3170    5.9170    9.4240 C.2    11  GLN11       0.2608
      8  OE1       37.4870    6.1990    9.1360 O.2    11  GLN11      -0.2717
      9  NE2       35.9900    5.2980   10.5560 N.am   11  GLN11      -0.0878
     10  N         30.9460    4.2380    8.1120 N.am   12  HIS12      -0.1976
     11  CA        30.2000    3.0440    8.5300 C.3    12  HIS12       0.1656
     12  C         28.7240    2.9580    8.1490 C.2    12  HIS12       0.2291
     13  O         28.1160    1.9050    8.3320 O.2    12  HIS12      -0.2864
     14  CB        30.3660    2.7940   10.0420 C.3    12  HIS12       0.0771
     15  CG        31.7890    2.5930   10.4660 C.ar   12  HIS12       0.0820
     16  ND1       32.5620    1.5470   10.0070 N.ar   12  HIS12      -0.2267
     17  CD2       32.5820    3.3070   11.2990 C.ar   12  HIS12       0.1154
     18  CE1       33.7650    1.6180   10.5490 C.ar   12  HIS12       0.1986
     19  NE2       33.8050    2.6810   11.3330 N.ar   12  HIS12      -0.2212
     20  N         42.6620    1.2280    4.1210 N.3    41  LYS41      -0.1231
     21  CA        42.1190    0.8890    5.4410 C.3    41  LYS41       0.1678
     22  C         41.8750   -0.6200    5.4260 C.2    41  LYS41       0.2434
     23  O         41.1760   -1.1180    4.5510 O.2    41  LYS41      -0.2733
     24  CB        40.8290    1.6600    5.7580 C.3    41  LYS41       0.0284
     25  CG        40.2440    1.3210    7.1220 C.3    41  LYS41       0.0035
     26  CD        39.1440    2.2800    7.5400 C.3    41  LYS41       0.0206
     27  CE        38.7080    1.9940    8.9850 C.3    41  LYS41       0.1093
     28  NZ        37.5630    2.8270    9.4360 N.3    41  LYS41      -0.1314
     29  N         42.4990   -1.3550    6.3630 N.am   42  PRO42      -0.2718
     30  CA        42.5040   -2.8230    6.3050 C.3    42  PRO42       0.1535
     31  C         41.1400   -3.5050    6.4960 C.2    42  PRO42       0.2598
     32  O         40.8430   -4.4800    5.7990 O.2    42  PRO42      -0.2715
     33  CB        43.4690   -3.2240    7.4350 C.3    42  PRO42       0.0310
     34  CG        44.1730   -1.9810    7.8320 C.3    42  PRO42       0.0237
     35  CD        43.2750   -0.8430    7.5060 C.3    42  PRO42       0.0939
     36  N         40.3350   -3.0080    7.4340 N.am   43  VAL43      -0.1964
     37  CA        39.0500   -3.6270    7.7850 C.3    43  VAL43       0.1727
     38  C         38.0270   -2.5260    8.0330 C.2    43  VAL43       0.2616
     39  O         38.3050   -1.5690    8.7630 O.2    43  VAL43      -0.2715
     40  CB        39.1740   -4.5080    9.0710 C.3    43  VAL43       0.0290
     41  CG1       37.8060   -4.9850    9.5610 C.3    43  VAL43       0.0023
     42  CG2       40.1100   -5.6970    8.8340 C.3    43  VAL43       0.0023
     43  N         36.8520   -2.6530    7.4200 N.am   44  ASN44      -0.1958
     44  CA        35.7940   -1.6560    7.6030 C.3    44  ASN44       0.1819
     45  C         34.4130   -2.2160    7.3170 C.2    44  ASN44       0.2621
     46  O         34.2230   -2.9200    6.3320 O.2    44  ASN44      -0.2715
     47  CB        36.0400   -0.4510    6.6990 C.3    44  ASN44       0.1195
     48  CG        35.1740    0.7260    7.0580 C.2    44  ASN44       0.2630
     49  OD1       35.3950    1.3760    8.0790 O.2    44  ASN44      -0.2716
     50  ND2       34.1780    1.0140    6.2170 N.am   44  ASN44      -0.0877
     51  N         33.4520   -1.8590    8.1640 N.am   45  THR45      -0.1951
     52  CA        32.0800   -2.3520    8.0640 C.3    45  THR45       0.1897
     53  C         31.1040   -1.2370    7.7230 C.2    45  THR45       0.2313
     54  O         31.1750   -0.1450    8.2960 O.2    45  THR45      -0.2863
     55  CB        31.6690   -3.0270    9.3860 C.3    45  THR45       0.1794
     56  OG1       32.6010   -4.0760    9.6590 O.3    45  THR45      -0.2208
     57  CG2       30.2510   -3.6130    9.2970 C.3    45  THR45       0.0378
     58  N         36.3400   -3.3450   22.9320 N.3    66  LYS66      -0.1245
     59  CA        37.5820   -4.0970   22.7680 C.3    66  LYS66       0.1561
     60  C         38.7750   -3.4350   23.4620 C.2    66  LYS66       0.2260
     61  O         39.6740   -4.1300   23.9350 O.2    66  LYS66      -0.2867
     62  CB        37.8850   -4.3350   21.2840 C.3    66  LYS66       0.0271
     63  CG        37.0100   -5.3990   20.6510 C.3    66  LYS66       0.0035
     64  CD        37.2530   -5.4950   19.1610 C.3    66  LYS66       0.0206
     65  CE        36.4000   -6.5850   18.5380 C.3    66  LYS66       0.1093
     66  NZ        36.3570   -6.4620   17.0510 N.3    66  LYS66      -0.1314
     67  N         30.9680   -6.3880    5.5310 N.3    83  ASP83      -0.1239
     68  CA        32.3650   -6.2740    5.9350 C.3    83  ASP83       0.1674
     69  C         33.2430   -6.1530    4.7050 C.2    83  ASP83       0.2266
     70  O         33.0460   -6.8720    3.7160 O.2    83  ASP83      -0.2867
     71  CB        32.8150   -7.4820    6.7600 C.3    83  ASP83       0.1410
     72  CG        32.2030   -7.5060    8.1430 C.2    83  ASP83       0.3668
     73  OD1       32.0830   -6.4360    8.7780 O.co2  83  ASP83      -0.2456
     74  OD2       31.8530   -8.6140    8.6070 O.co2  83  ASP83      -0.2456
     75  N         37.2780   -6.3800    3.7470 N.3    85  ARG85      -0.1245
     76  CA        38.5850   -6.8020    4.2240 C.3    85  ARG85       0.1563
     77  C         39.5740   -6.7740    3.0740 C.2    85  ARG85       0.2260
     78  O         39.3290   -7.3920    2.0330 O.2    85  ARG85      -0.2867
     79  CB        38.5030   -8.2120    4.8100 C.3    85  ARG85       0.0307
     80  CG        39.7150   -8.6230    5.6350 C.3    85  ARG85       0.0489
     81  CD        39.3810   -9.7930    6.5500 C.3    85  ARG85       0.2205
     82  NE        38.2480   -9.4850    7.4230 N.pl3  85  ARG85      -0.0865
     83  CZ        38.3430   -9.1710    8.7130 C.cat  85  ARG85       0.5346
     84  NH1       37.2440   -8.9030    9.4050 N.pl3  85  ARG85       0.1354
     85  NH2       39.5270   -9.1320    9.3170 N.pl3  85  ARG85       0.1354
     86  N         32.3240    5.1410   16.8670 N.3   119  HIS119     -0.1226
     87  CA        33.2860    4.0790   16.5160 C.3   119  HIS119      0.1752
     88  C         32.5130    2.7970   16.2490 C.2   119  HIS119      0.2596
     89  O         31.5490    2.4900   16.9590 O.2   119  HIS119     -0.2718
     90  CB        34.2380    3.8460   17.7080 C.3   119  HIS119      0.0759
     91  CG        35.0260    5.0410   18.1430 C.ar  119  HIS119      0.0818
     92  ND1       35.7100    5.8580   17.2680 N.ar  119  HIS119     -0.2268
     93  CD2       35.2800    5.5210   19.3830 C.ar  119  HIS119      0.1154
     94  CE1       36.3180    6.8130   17.9490 C.ar  119  HIS119      0.1986
     95  NE2       36.0840    6.6240   19.2350 N.ar  119  HIS119     -0.2212
     96  N         32.9400    2.0390   15.2430 N.am  120  PHE120     -0.1962
     97  CA        32.3830    0.7120   15.0240 C.3   120  PHE120      0.1771
     98  C         33.3460   -0.2880   15.6610 C.2   120  PHE120      0.2620
     99  O         34.4960   -0.3870   15.2410 O.2   120  PHE120     -0.2715
    100  CB        32.1850    0.4230   13.5330 C.3   120  PHE120      0.0574
    101  CG        31.4040   -0.8330   13.2760 C.ar  120  PHE120     -0.0200
    102  CD1       30.0380   -0.7790   13.0100 C.ar  120  PHE120     -0.0042
    103  CD2       32.0300   -2.0780   13.3490 C.ar  120  PHE120     -0.0042
    104  CE1       29.3060   -1.9530   12.7970 C.ar  120  PHE120     -0.0003
    105  CE2       31.3080   -3.2510   13.1350 C.ar  120  PHE120     -0.0003
    106  CZ        29.9360   -3.1820   12.8600 C.ar  120  PHE120     -0.0000
    107  N         32.8810   -1.0270   16.6700 N.am  121  ASP121     -0.1957
    108  CA        33.7880   -1.8890   17.4380 C.3   121  ASP121      0.1840
    109  C         33.8780   -3.3150   16.9100 C.2   121  ASP121      0.2622
    110  O         34.9760   -3.8740   16.7820 O.2   121  ASP121     -0.2715
    111  CB        33.4270   -1.8960   18.9330 C.3   121  ASP121      0.1450
    112  CG        34.6310   -2.1820   19.8210 C.2   121  ASP121      0.3671
    113  OD1       35.7000   -1.5430   19.6170 O.co2 121  ASP121     -0.2456
    114  OD2       34.5070   -3.0320   20.7260 O.co2 121  ASP121     -0.2456
    115  N         32.7200   -3.9050   16.6320 N.am  122  ALA122     -0.1963
    116  CA        32.6440   -5.3200   16.2620 C.3   122  ALA122      0.1728
    117  C         31.2600   -5.6810   15.7720 C.2   122  ALA122      0.2616
    118  O         30.3150   -4.9140   15.9170 O.2   122  ALA122     -0.2715
    119  CB        32.9890   -6.1890   17.4660 C.3   122  ALA122      0.0334
    120  N         31.1460   -6.8720   15.1970 N.am  123  SER123     -0.1950
    121  CA        29.8430   -7.4720   14.9860 C.3   123  SER123      0.1924
    122  C         29.8900   -8.8780   15.5620 C.2   123  SER123      0.2314
    123  O         30.9410   -9.5240   15.5510 O.2   123  SER123     -0.2863
    124  CB        29.4640   -7.4960   13.5080 C.3   123  SER123      0.2116
    125  OG        30.3280   -8.3380   12.7690 O.3   123  SER123     -0.2180
@<TRIPOS>BOND
     1    78    77    2
     2    77    76    1
     3    70    69    2
     4    75    76    1
     5    20    21    1
     6    76    79    1
     7    23    22    2
     8    69    68    1
     9    79    80    1
    10    22    21    1
    11    22    29   am
    12    21    24    1
    13    67    68    1
    14    80    81    1
    15    24    25    1
    16    32    31    2
    17    68    71    1
    18    50    48   am
    19    30    29    1
    20    30    31    1
    21    30    33    1
    22    46    45    2
    23    29    35    1
    24    31    36   am
    25    81    82    1
    26    47    48    1
    27    47    44    1
    28    71    72    1
    29     4     3    2
    30    48    49    2
    31    25    26    1
    32    45    44    1
    33    45    51   am
    34     2     1    1
    35     2     3    1
    36     2     5    1
    37    43    44    1
    38    43    38   am
    39    82    83    2
    40    36    37    1
    41    33    34    1
    42     3    10   am
    43    35    34    1
    44    26    27    1
    45    53    52    1
    46    53    54    2
    47    37    38    1
    48    37    40    1
    49    38    39    2
    50    52    51    1
    51    52    55    1
    52    10    11    1
    53    72    74   ar
    54    72    73   ar
    55    12    13    2
    56    12    11    1
    57     6     5    1
    58     6     7    1
    59    11    14    1
    60    83    85    1
    61    83    84    1
    62    42    40    1
    63    27    28    1
    64    40    41    1
    65     8     7    2
    66    57    55    1
    67    55    56    1
    68     7     9   am
    69    16    15   ar
    70    16    18   ar
    71    14    15    1
    72    15    17   ar
    73    18    19   ar
    74    17    19   ar
    75   125   124    1
    76   104   106   ar
    77   104   102   ar
    78   106   105   ar
    79   102   101   ar
    80   105   103   ar
    81   101   103   ar
    82   101   100    1
    83   124   121    1
    84   100    97    1
    85   121   120    1
    86   121   122    1
    87    97    96    1
    88    97    98    1
    89   120   117   am
    90    99    98    2
    91    96    88   am
    92   123   122    2
    93    98   107   am
    94   117   118    2
    95   117   116    1
    96    88    87    1
    97    88    89    2
    98   116   115    1
    99   116   119    1
   100    87    86    1
   101    87    90    1
   102   115   109   am
   103   107   108    1
   104   110   109    2
   105   109   108    1
   106    66    65    1
   107    92    94   ar
   108    92    91   ar
   109   108   111    1
   110    90    91    1
   111    94    95   ar
   112    91    93   ar
   113    65    64    1
   114   111   112    1
   115    64    63    1
   116    95    93   ar
   117   113   112   ar
   118   112   114   ar
   119    63    62    1
   120    62    59    1
   121    59    58    1
   122    59    60    1
   123    60    61    2
