@<TRIPOS>MOLECULE
tmp/3d6uA00.pdb
 155 150 0 0 0
SMALL
GASTEIGER

@<TRIPOS>ATOM
      1  N          0.1320  -25.5990  -20.5770 N.3    31  ILE31      -0.1231
      2  CA        -0.8950  -24.6040  -20.4620 C.3    31  ILE31       0.1692
      3  C         -2.1480  -25.2190  -19.8840 C.2    31  ILE31       0.2592
      4  O         -2.4170  -26.4050  -20.0750 O.2    31  ILE31      -0.2718
      5  CB        -1.2410  -23.9870  -21.8890 C.3    31  ILE31       0.0266
      6  CG1       -2.0760  -22.7070  -21.7310 C.3    31  ILE31       0.0019
      7  CG2       -1.9200  -25.0660  -22.8000 C.3    31  ILE31       0.0020
      8  CD1       -1.9120  -21.7030  -22.8490 C.3    31  ILE31       0.0001
      9  N         -2.9470  -24.3800  -19.2370 N.am   32  ILE32      -0.1966
     10  CA        -4.3140  -24.6950  -18.9240 C.3    32  ILE32       0.1727
     11  C         -5.1470  -23.4380  -19.1040 C.2    32  ILE32       0.2617
     12  O         -4.6680  -22.3330  -18.8010 O.2    32  ILE32      -0.2715
     13  CB        -4.5040  -25.3170  -17.5160 C.3    32  ILE32       0.0290
     14  CG1       -6.0000  -25.6270  -17.2870 C.3    32  ILE32       0.0022
     15  CG2       -3.9160  -24.4580  -16.3960 C.3    32  ILE32       0.0023
     16  CD1       -6.2190  -26.6640  -16.0550 C.3    32  ILE32       0.0001
     17  N         -6.3930  -23.5890  -19.5920 N.am   33  GLY33      -0.1940
     18  CA        -7.2860  -22.4320  -19.5790 C.3    33  GLY33       0.2014
     19  C         -8.4410  -22.5420  -18.6380 C.2    33  GLY33       0.2639
     20  O         -9.0100  -23.6340  -18.4510 O.2    33  GLY33      -0.2714
     21  N         -8.8370  -21.3830  -18.1030 N.am   34  PHE34      -0.1959
     22  CA        -9.9990  -21.3040  -17.2100 C.3    34  PHE34       0.1771
     23  C        -10.8850  -20.1540  -17.5590 C.2    34  PHE34       0.2619
     24  O        -10.4250  -19.0140  -17.5580 O.2    34  PHE34      -0.2715
     25  CB        -9.5960  -21.0210  -15.7400 C.3    34  PHE34       0.0574
     26  CG        -8.9090  -22.1240  -15.0710 C.ar   34  PHE34      -0.0200
     27  CD1       -7.5320  -22.0760  -14.8940 C.ar   34  PHE34      -0.0042
     28  CD2       -9.6200  -23.2140  -14.5950 C.ar   34  PHE34      -0.0042
     29  CE1       -6.8840  -23.1150  -14.2210 C.ar   34  PHE34      -0.0003
     30  CE2       -8.9740  -24.2680  -13.9600 C.ar   34  PHE34      -0.0003
     31  CZ        -7.6250  -24.2260  -13.7570 C.ar   34  PHE34      -0.0000
     32  N        -12.1690  -20.4080  -17.8070 N.am   35  GLU35      -0.1977
     33  CA       -13.1630  -19.3190  -17.7670 C.3    35  GLU35       0.1602
     34  C        -13.1670  -18.7430  -16.3230 C.2    35  GLU35       0.2287
     35  O        -13.2790  -19.4970  -15.3430 O.2    35  GLU35      -0.2864
     36  CB       -14.5590  -19.8370  -18.1280 C.3    35  GLU35       0.0415
     37  CG       -14.7400  -20.3630  -19.5740 C.3    35  GLU35       0.1163
     38  CD       -16.1600  -20.8350  -19.7570 C.2    35  GLU35       0.3649
     39  OE1      -17.0210  -20.1620  -19.1970 O.co2  35  GLU35      -0.2457
     40  OE2      -16.4650  -21.8520  -20.4290 O.co2  35  GLU35      -0.2457
     41  N         -4.1920  -19.4770  -19.0170 N.3    64  LEU64      -0.1245
     42  CA        -5.0620  -18.6270  -19.8010 C.3    64  LEU64       0.1561
     43  C         -6.3060  -18.3260  -19.0090 C.2    64  LEU64       0.2260
     44  O         -7.0530  -19.2200  -18.6020 O.2    64  LEU64      -0.2867
     45  CB        -5.4200  -19.2890  -21.1180 C.3    64  LEU64       0.0270
     46  CG        -6.3160  -18.4040  -21.9860 C.3    64  LEU64       0.0019
     47  CD1       -5.4580  -17.2490  -22.5720 C.3    64  LEU64       0.0001
     48  CD2       -6.8940  -19.3140  -22.9900 C.3    64  LEU64       0.0001
     49  N         -9.4010  -17.3640  -19.4610 N.3    66  ALA66      -0.1245
     50  CA       -10.0600  -17.5100  -20.7990 C.3    66  ALA66       0.1562
     51  C        -11.2680  -16.5850  -20.8980 C.2    66  ALA66       0.2260
     52  O        -12.4140  -17.0160  -20.9620 O.2    66  ALA66      -0.2867
     53  CB       -10.4680  -18.9280  -21.0100 C.3    66  ALA66       0.0290
     54  N        -13.6060  -16.6990  -24.0210 N.3    69  PHE69      -0.1241
     55  CA       -14.2800  -17.9820  -23.8740 C.3    69  PHE69       0.1605
     56  C        -15.4870  -17.8300  -22.9420 C.2    69  PHE69       0.2264
     57  O        -16.6190  -18.1770  -23.2830 O.2    69  PHE69      -0.2867
     58  CB       -13.3110  -19.1080  -23.4120 C.3    69  PHE69       0.0534
     59  CG       -12.2820  -19.5220  -24.4650 C.ar   69  PHE69      -0.0203
     60  CD1      -12.5640  -20.5320  -25.3870 C.ar   69  PHE69      -0.0042
     61  CD2      -11.0320  -18.9020  -24.5370 C.ar   69  PHE69      -0.0042
     62  CE1      -11.6200  -20.9300  -26.3700 C.ar   69  PHE69      -0.0003
     63  CE2      -10.0890  -19.2750  -25.5400 C.ar   69  PHE69      -0.0003
     64  CZ       -10.3980  -20.3270  -26.4300 C.ar   69  PHE69      -0.0000
     65  N        -19.7040  -28.3940  -21.5980 N.3   136  ILE136     -0.1245
     66  CA       -19.0830  -27.0760  -21.3310 C.3   136  ILE136      0.1561
     67  C        -20.1300  -25.9650  -21.4250 C.2   136  ILE136      0.2260
     68  O        -20.2020  -25.0710  -20.5710 O.2   136  ILE136     -0.2867
     69  CB       -17.8650  -26.8650  -22.3410 C.3   136  ILE136      0.0252
     70  CG1      -16.7900  -27.9290  -22.0680 C.3   136  ILE136      0.0019
     71  CG2      -17.2820  -25.4580  -22.2480 C.3   136  ILE136      0.0019
     72  CD1      -16.1070  -28.3950  -23.2240 C.3   136  ILE136      0.0001
     73  N        -16.8440  -21.1110  -29.7160 N.3   150  TYR150     -0.1241
     74  CA       -16.0310  -21.4560  -28.5450 C.3   150  TYR150      0.1605
     75  C        -15.0370  -22.6260  -28.8190 C.2   150  TYR150      0.2264
     76  O        -13.8660  -22.4730  -28.5810 O.2   150  TYR150     -0.2867
     77  CB       -16.9490  -21.7500  -27.3820 C.3   150  TYR150      0.0534
     78  CG       -16.3660  -21.9900  -26.0520 C.ar  150  TYR150     -0.0201
     79  CD1      -16.6410  -21.1290  -24.9930 C.ar  150  TYR150     -0.0009
     80  CD2      -15.6160  -23.1190  -25.7990 C.ar  150  TYR150     -0.0009
     81  CE1      -16.1620  -21.4060  -23.7090 C.ar  150  TYR150      0.0417
     82  CE2      -15.1100  -23.3840  -24.5220 C.ar  150  TYR150      0.0417
     83  CZ       -15.4090  -22.5580  -23.5040 C.ar  150  TYR150      0.1957
     84  OH       -14.9390  -22.8260  -22.2810 O.3   150  TYR150     -0.2866
     85  N        -10.9180  -22.7530  -28.9750 N.3   154  GLN154     -0.1245
     86  CA       -10.1180  -23.6240  -28.0890 C.3   154  GLN154      0.1566
     87  C         -9.0760  -24.5230  -28.8140 C.2   154  GLN154      0.2260
     88  O         -8.0990  -24.9380  -28.2150 O.2   154  GLN154     -0.2867
     89  CB       -10.9900  -24.4220  -27.1010 C.3   154  GLN154      0.0367
     90  CG       -10.1370  -25.2660  -26.1340 C.3   154  GLN154      0.0905
     91  CD       -10.9040  -25.6610  -24.9410 C.2   154  GLN154      0.2608
     92  OE1      -11.8170  -24.9660  -24.5540 O.2   154  GLN154     -0.2717
     93  NE2      -10.5600  -26.8000  -24.3540 N.am  154  GLN154     -0.0878
     94  N         -3.0160  -20.7250  -29.5390 N.3   159  HIS159     -0.1226
     95  CA        -2.9840  -20.9850  -28.1520 C.3   159  HIS159      0.1752
     96  C         -1.8650  -21.8870  -27.7380 C.2   159  HIS159      0.2596
     97  O         -1.5340  -21.9020  -26.5720 O.2   159  HIS159     -0.2718
     98  CB        -4.2960  -21.6240  -27.6420 C.3   159  HIS159      0.0759
     99  CG        -5.4620  -20.6910  -27.6480 C.ar  159  HIS159      0.0818
    100  ND1       -5.5270  -19.5730  -26.8580 N.ar  159  HIS159     -0.2268
    101  CD2       -6.5930  -20.6900  -28.4020 C.ar  159  HIS159      0.1154
    102  CE1       -6.6730  -18.9430  -27.0730 C.ar  159  HIS159      0.1986
    103  NE2       -7.3410  -19.6100  -28.0080 N.ar  159  HIS159     -0.2212
    104  N         -1.3950  -22.7210  -28.6730 N.am  160  TYR160     -0.1976
    105  CA        -0.4920  -23.8370  -28.3850 C.3   160  TYR160      0.1639
    106  C          0.9010  -23.6640  -28.9740 C.2   160  TYR160      0.2290
    107  O          1.6920  -24.6240  -28.9530 O.2   160  TYR160     -0.2864
    108  CB        -1.0860  -25.1910  -28.8320 C.3   160  TYR160      0.0560
    109  CG        -2.4160  -25.4090  -28.1780 C.ar  160  TYR160     -0.0198
    110  CD1       -2.5060  -25.8270  -26.8210 C.ar  160  TYR160     -0.0009
    111  CD2       -3.6090  -25.1050  -28.8790 C.ar  160  TYR160     -0.0009
    112  CE1       -3.7770  -25.9520  -26.2090 C.ar  160  TYR160      0.0417
    113  CE2       -4.8690  -25.2520  -28.2640 C.ar  160  TYR160      0.0417
    114  CZ        -4.9390  -25.6540  -26.9530 C.ar  160  TYR160      0.1957
    115  OH        -6.1820  -25.7300  -26.3670 O.3   160  TYR160     -0.2866
    116  N         -1.1090  -29.5560  -22.7280 N.3   166  ALA166     -0.1231
    117  CA        -2.2600  -28.8410  -22.2520 C.3   166  ALA166      0.1694
    118  C         -2.9210  -29.7260  -21.2330 C.2   166  ALA166      0.2591
    119  O         -3.0360  -30.9490  -21.4050 O.2   166  ALA166     -0.2718
    120  CB        -3.2370  -28.5090  -23.4270 C.3   166  ALA166      0.0304
    121  N         -3.4000  -29.1000  -20.1830 N.am  167  VAL167     -0.1980
    122  CA        -4.0590  -29.8270  -19.1040 C.3   167  VAL167      0.1595
    123  C         -5.5050  -29.3700  -19.0520 C.2   167  VAL167      0.2287
    124  O         -5.7640  -28.2020  -19.2920 O.2   167  VAL167     -0.2864
    125  CB        -3.3230  -29.5130  -17.8080 C.3   167  VAL167      0.0276
    126  CG1       -3.9580  -30.2080  -16.6610 C.3   167  VAL167      0.0022
    127  CG2       -1.7480  -29.9340  -17.9760 C.3   167  VAL167      0.0022
    128  N        -14.1000  -33.2180  -18.9600 N.3   171  GLU171     -0.1231
    129  CA       -15.1810  -32.5600  -19.7340 C.3   171  GLU171      0.1699
    130  C        -14.6170  -31.8620  -20.9930 C.2   171  GLU171      0.2592
    131  O        -15.3600  -31.5830  -21.9760 O.2   171  GLU171     -0.2718
    132  CB       -15.9970  -31.5980  -18.8560 C.3   171  GLU171      0.0402
    133  CG       -15.3560  -30.2210  -18.6110 C.3   171  GLU171      0.1161
    134  CD       -14.2130  -30.2190  -17.5560 C.2   171  GLU171      0.3649
    135  OE1      -13.9760  -31.2850  -16.9220 O.co2 171  GLU171     -0.2457
    136  OE2      -13.5440  -29.1380  -17.3680 O.co2 171  GLU171     -0.2457
    137  N        -13.3000  -31.6380  -21.0350 N.am  172  GLN172     -0.1979
    138  CA       -12.7190  -31.0130  -22.2260 C.3   172  GLN172      0.1601
    139  C        -12.2970  -31.9850  -23.3100 C.2   172  GLN172      0.2287
    140  O        -11.8150  -31.5410  -24.3200 O.2   172  GLN172     -0.2864
    141  CB       -11.4810  -30.1300  -21.9040 C.3   172  GLN172      0.0394
    142  CG       -11.6530  -29.2560  -20.7080 C.3   172  GLN172      0.0908
    143  CD       -12.5690  -28.0690  -20.9690 C.2   172  GLN172      0.2608
    144  OE1      -12.4980  -27.4300  -22.0570 O.2   172  GLN172     -0.2717
    145  NE2      -13.4270  -27.7410  -19.9540 N.am  172  GLN172     -0.0878
    146  N        -10.5830  -31.4200  -27.1030 N.3   176  HIS176     -0.1241
    147  CA        -9.2090  -31.8480  -27.3160 C.3   176  HIS176      0.1621
    148  C         -9.0320  -32.8870  -28.3640 C.2   176  HIS176      0.2264
    149  O         -8.0240  -32.8790  -29.0170 O.2   176  HIS176     -0.2867
    150  CB        -8.5960  -32.2680  -26.0120 C.3   176  HIS176      0.0745
    151  CG        -8.4730  -31.1230  -25.0810 C.ar  176  HIS176      0.0817
    152  ND1       -8.2600  -31.2670  -23.7240 N.ar  176  HIS176     -0.2268
    153  CD2       -8.5330  -29.7980  -25.3260 C.ar  176  HIS176      0.1154
    154  CE1       -8.1920  -30.0690  -23.1730 C.ar  176  HIS176      0.1986
    155  NE2       -8.3520  -29.1600  -24.1260 N.ar  176  HIS176     -0.2212
@<TRIPOS>BOND
     1    73    74    1
     2    94    95    1
     3   149   148    2
     4    85    86    1
     5   106   107    2
     6   106   105    1
     7   111   113   ar
     8   111   109   ar
     9   108   105    1
    10   108   109    1
    11    75    76    2
    12    75    74    1
    13    87    88    2
    14    87    86    1
    15   104   105    1
    16   104    96   am
    17    74    77    1
    18   101   103   ar
    19   101    99   ar
    20   148   147    1
    21   113   114   ar
    22   109   110   ar
    23    95    96    1
    24    95    98    1
    25    86    89    1
    26   103   102   ar
    27    96    97    2
    28    99    98    1
    29    99   100   ar
    30    77    78    1
    31   147   146    1
    32   147   150    1
    33    89    90    1
    34   102   100   ar
    35   114   115    1
    36   114   112   ar
    37   110   112   ar
    38    64    62   ar
    39    64    63   ar
    40    62    60   ar
    41    90    91    1
    42    78    80   ar
    43    78    79   ar
    44   150   151    1
    45    80    82   ar
    46    63    61   ar
    47    60    59   ar
    48   153   151   ar
    49   153   155   ar
    50   151   152   ar
    51    79    81   ar
    52    91    92    2
    53    91    93   am
    54    61    59   ar
    55    82    83   ar
    56    59    58    1
    57   140   139    2
    58   155   154   ar
    59    54    55    1
    60    55    58    1
    61    55    56    1
    62   152   154   ar
    63    81    83   ar
    64    83    84    1
    65   120   117    1
    66   139   138    1
    67    57    56    2
    68    72    70    1
    69    48    46    1
    70     8     6    1
    71     7     5    1
    72   116   117    1
    73    47    46    1
    74    69    71    1
    75    69    70    1
    76    69    66    1
    77   117   118    1
    78   138   141    1
    79   138   137    1
    80   144   143    2
    81    46    45    1
    82   131   130    2
    83   141   142    1
    84     5     6    1
    85     5     2    1
    86    65    66    1
    87    67    66    1
    88    67    68    2
    89   119   118    2
    90   118   121   am
    91    45    42    1
    92   137   130   am
    93    53    50    1
    94   130   129    1
    95   143   142    1
    96   143   145   am
    97    52    51    2
    98    51    50    1
    99    50    49    1
   100     1     2    1
   101     2     3    1
   102    40    38   ar
   103   121   122    1
   104     4     3    2
   105     3     9   am
   106    42    41    1
   107    42    43    1
   108    38    37    1
   109    38    39   ar
   110   129   128    1
   111   129   132    1
   112    17    18    1
   113    17    11   am
   114    18    19    1
   115    37    36    1
   116   124   123    2
   117     9    10    1
   118   122   123    1
   119   122   125    1
   120    11    10    1
   121    11    12    2
   122    43    44    2
   123    10    13    1
   124   132   133    1
   125    19    20    2
   126    19    21   am
   127   133   134    1
   128    36    33    1
   129    21    22    1
   130   127   125    1
   131   125   126    1
   132    32    33    1
   133    32    23   am
   134    33    34    1
   135    23    24    2
   136    23    22    1
   137   134   136   ar
   138   134   135   ar
   139    13    14    1
   140    13    15    1
   141    14    16    1
   142    22    25    1
   143    34    35    2
   144    25    26    1
   145    26    27   ar
   146    26    28   ar
   147    27    29   ar
   148    28    30   ar
   149    29    31   ar
   150    30    31   ar
