@<TRIPOS>MOLECULE
tmp/3d6vA00.pdb
 155 150 0 0 0
SMALL
GASTEIGER

@<TRIPOS>ATOM
      1  N          0.3000   25.8400    2.9420 N.3    31  ILE31      -0.1231
      2  CA        -0.7350   24.8380    2.8490 C.3    31  ILE31       0.1692
      3  C         -2.0420   25.4260    2.2540 C.2    31  ILE31       0.2592
      4  O         -2.3240   26.6000    2.4410 O.2    31  ILE31      -0.2718
      5  CB        -0.9930   24.1970    4.2770 C.3    31  ILE31       0.0266
      6  CG1       -1.7660   22.8810    4.2180 C.3    31  ILE31       0.0019
      7  CG2       -1.7720   25.2280    5.2190 C.3    31  ILE31       0.0020
      8  CD1       -1.5380   21.9750    5.4780 C.3    31  ILE31       0.0001
      9  N         -2.8240   24.5990    1.5450 N.am   32  ILE32      -0.1966
     10  CA        -4.1770   24.9380    1.1560 C.3    32  ILE32       0.1727
     11  C         -5.0110   23.6940    1.3530 C.2    32  ILE32       0.2617
     12  O         -4.4790   22.6220    1.1370 O.2    32  ILE32      -0.2715
     13  CB        -4.3350   25.4590   -0.3260 C.3    32  ILE32       0.0290
     14  CG1       -5.8560   25.8010   -0.6330 C.3    32  ILE32       0.0022
     15  CG2       -3.8100   24.4680   -1.3220 C.3    32  ILE32       0.0023
     16  CD1       -6.0320   26.8940   -1.8820 C.3    32  ILE32       0.0001
     17  N         -6.2770   23.8050    1.8580 N.am   33  GLY33      -0.1940
     18  CA        -7.1420   22.5700    1.8860 C.3    33  GLY33       0.2014
     19  C         -8.2810   22.6780    0.9170 C.2    33  GLY33       0.2639
     20  O         -8.8400   23.7500    0.7690 O.2    33  GLY33      -0.2714
     21  N         -8.7010   21.5580    0.3240 N.am   34  PHE34      -0.1959
     22  CA        -9.9400   21.5590   -0.5070 C.3    34  PHE34       0.1771
     23  C        -10.8750   20.4250   -0.1470 C.2    34  PHE34       0.2619
     24  O        -10.3960   19.3160   -0.0760 O.2    34  PHE34      -0.2715
     25  CB        -9.5930   21.2550   -1.9640 C.3    34  PHE34       0.0574
     26  CG        -8.9020   22.3380   -2.6650 C.ar   34  PHE34      -0.0200
     27  CD1       -7.5260   22.2610   -2.8630 C.ar   34  PHE34      -0.0042
     28  CD2       -9.6200   23.4380   -3.1400 C.ar   34  PHE34      -0.0042
     29  CE1       -6.8460   23.2730   -3.6060 C.ar   34  PHE34      -0.0003
     30  CE2       -8.9490   24.4950   -3.8070 C.ar   34  PHE34      -0.0003
     31  CZ        -7.5600   24.4010   -4.0540 C.ar   34  PHE34      -0.0000
     32  N        -12.1660   20.6680    0.0840 N.am   35  GLU35      -0.1977
     33  CA       -13.1390   19.5470    0.0330 C.3    35  GLU35       0.1602
     34  C        -13.1270   18.9230   -1.3790 C.2    35  GLU35       0.2287
     35  O        -13.2790   19.6510   -2.3660 O.2    35  GLU35      -0.2864
     36  CB       -14.5920   19.9770    0.4080 C.3    35  GLU35       0.0415
     37  CG       -14.7680   20.5060    1.8520 C.3    35  GLU35       0.1163
     38  CD       -16.2520   21.0150    2.0280 C.2    35  GLU35       0.3649
     39  OE1      -17.1450   20.3710    1.4500 O.co2  35  GLU35      -0.2457
     40  OE2      -16.5320   22.0530    2.6930 O.co2  35  GLU35      -0.2457
     41  N         -4.0400   19.6700    1.2460 N.3    64  LEU64      -0.1245
     42  CA        -4.7910   18.8060    2.1150 C.3    64  LEU64       0.1561
     43  C         -6.0700   18.4350    1.3560 C.2    64  LEU64       0.2260
     44  O         -6.8970   19.2990    1.0350 O.2    64  LEU64      -0.2867
     45  CB        -5.1150   19.5330    3.4350 C.3    64  LEU64       0.0270
     46  CG        -6.1880   18.7760    4.2770 C.3    64  LEU64       0.0019
     47  CD1       -5.5000   17.5360    4.9150 C.3    64  LEU64       0.0001
     48  CD2       -6.7250   19.6570    5.3440 C.3    64  LEU64       0.0001
     49  N         -9.3400   17.4180    1.8030 N.3    66  ALA66      -0.1245
     50  CA        -9.9640   17.5610    3.1580 C.3    66  ALA66       0.1562
     51  C        -11.2080   16.6740    3.1450 C.2    66  ALA66       0.2260
     52  O        -12.3320   17.1830    3.1440 O.2    66  ALA66      -0.2867
     53  CB       -10.2960   19.0310    3.3980 C.3    66  ALA66       0.0290
     54  N        -13.7550   16.7330    6.1520 N.3    69  PHE69      -0.1241
     55  CA       -14.4280   18.0300    6.0720 C.3    69  PHE69       0.1605
     56  C        -15.5960   17.9340    5.0860 C.2    69  PHE69       0.2264
     57  O        -16.6700   18.4310    5.3790 O.2    69  PHE69      -0.2867
     58  CB       -13.4490   19.1820    5.6860 C.3    69  PHE69       0.0534
     59  CG       -12.4930   19.6260    6.8280 C.ar   69  PHE69      -0.0203
     60  CD1      -12.8460   20.6250    7.7330 C.ar   69  PHE69      -0.0042
     61  CD2      -11.2100   19.0670    6.9590 C.ar   69  PHE69      -0.0042
     62  CE1      -11.9610   21.0670    8.7620 C.ar   69  PHE69      -0.0003
     63  CE2      -10.3010   19.4920    8.0020 C.ar   69  PHE69      -0.0003
     64  CZ       -10.6410   20.4850    8.8940 C.ar   69  PHE69      -0.0000
     65  N        -19.9430   28.7850    3.7510 N.3   136  ILE136     -0.1245
     66  CA       -19.3550   27.4230    3.5000 C.3   136  ILE136      0.1561
     67  C        -20.3920   26.2700    3.6220 C.2   136  ILE136      0.2260
     68  O        -20.3470   25.2950    2.8690 O.2   136  ILE136     -0.2867
     69  CB       -18.1610   27.2190    4.5360 C.3   136  ILE136      0.0252
     70  CG1      -17.0870   28.2580    4.2480 C.3   136  ILE136      0.0019
     71  CG2      -17.6370   25.8110    4.5890 C.3   136  ILE136      0.0019
     72  CD1      -16.2560   28.6010    5.4230 C.3   136  ILE136      0.0001
     73  N        -17.1180   21.4790   11.9620 N.3   150  TYR150     -0.1241
     74  CA       -16.2640   21.7680   10.8340 C.3   150  TYR150      0.1605
     75  C        -15.2700   22.8880   11.1070 C.2   150  TYR150      0.2264
     76  O        -14.0990   22.7170   10.8490 O.2   150  TYR150     -0.2867
     77  CB       -17.1320   22.0650    9.6590 C.3   150  TYR150      0.0534
     78  CG       -16.5520   22.2650    8.3400 C.ar  150  TYR150     -0.0201
     79  CD1      -16.8260   21.3560    7.2910 C.ar  150  TYR150     -0.0009
     80  CD2      -15.7970   23.3720    8.0530 C.ar  150  TYR150     -0.0009
     81  CE1      -16.2920   21.5570    5.9690 C.ar  150  TYR150      0.0417
     82  CE2      -15.2180   23.5630    6.7060 C.ar  150  TYR150      0.0417
     83  CZ       -15.5270   22.7030    5.6910 C.ar  150  TYR150      0.1957
     84  OH       -15.0400   22.9390    4.3970 O.3   150  TYR150     -0.2866
     85  N        -11.0820   22.8110   11.1810 N.3   154  GLN154     -0.1245
     86  CA       -10.2430   23.7080   10.3640 C.3   154  GLN154      0.1566
     87  C         -9.1590   24.5530   11.1170 C.2   154  GLN154      0.2260
     88  O         -8.1280   24.8690   10.5080 O.2   154  GLN154     -0.2867
     89  CB       -11.0780   24.6330    9.4640 C.3   154  GLN154      0.0367
     90  CG       -10.2870   25.4130    8.4010 C.3   154  GLN154      0.0905
     91  CD       -11.1180   25.7980    7.2690 C.2   154  GLN154      0.2608
     92  OE1      -12.0520   25.1030    6.9160 O.2   154  GLN154     -0.2717
     93  NE2      -10.7760   26.8850    6.6430 N.am  154  GLN154     -0.0878
     94  N         -2.9180   20.9620   11.9120 N.3   159  HIS159     -0.1226
     95  CA        -2.9430   21.1970   10.5080 C.3   159  HIS159      0.1752
     96  C         -1.8210   22.1020   10.1130 C.2   159  HIS159      0.2596
     97  O         -1.5000   22.1240    8.9590 O.2   159  HIS159     -0.2718
     98  CB        -4.2420   21.8750   10.0900 C.3   159  HIS159      0.0759
     99  CG        -5.3940   20.9410    9.9720 C.ar  159  HIS159      0.0818
    100  ND1       -5.3750   19.8340    9.1600 N.ar  159  HIS159     -0.2268
    101  CD2       -6.5890   20.9250   10.5930 C.ar  159  HIS159      0.1154
    102  CE1       -6.5290   19.1900    9.2630 C.ar  159  HIS159      0.1986
    103  NE2       -7.2710   19.8300   10.1360 N.ar  159  HIS159     -0.2212
    104  N         -1.2680   22.8640   11.0730 N.am  160  TYR160     -0.1976
    105  CA        -0.3580   23.9820   10.8420 C.3   160  TYR160      0.1639
    106  C          1.0200   23.8050   11.4070 C.2   160  TYR160      0.2290
    107  O          1.7810   24.7680   11.3850 O.2   160  TYR160     -0.2864
    108  CB        -0.9340   25.3410   11.3200 C.3   160  TYR160      0.0560
    109  CG        -2.3070   25.5840   10.7050 C.ar  160  TYR160     -0.0198
    110  CD1       -2.4350   26.1100    9.3870 C.ar  160  TYR160     -0.0009
    111  CD2       -3.4710   25.1750   11.3830 C.ar  160  TYR160     -0.0009
    112  CE1       -3.7020   26.2740    8.8210 C.ar  160  TYR160      0.0417
    113  CE2       -4.7550   25.3400   10.8140 C.ar  160  TYR160      0.0417
    114  CZ        -4.8460   25.8880    9.5580 C.ar  160  TYR160      0.1957
    115  OH        -6.0570   26.0340    9.0040 O.3   160  TYR160     -0.2866
    116  N         -0.9840   29.8710    5.0980 N.3   166  ALA166     -0.1231
    117  CA        -2.1330   29.1240    4.6580 C.3   166  ALA166      0.1694
    118  C         -2.7480   29.9800    3.6000 C.2   166  ALA166      0.2591
    119  O         -2.7990   31.1860    3.7460 O.2   166  ALA166     -0.2718
    120  CB        -3.1640   28.9350    5.8620 C.3   166  ALA166      0.0304
    121  N         -3.2790   29.3620    2.5450 N.am  167  VAL167     -0.1980
    122  CA        -3.9010   30.1110    1.3950 C.3   167  VAL167      0.1595
    123  C         -5.3350   29.5880    1.3200 C.2   167  VAL167      0.2287
    124  O         -5.5930   28.4040    1.5300 O.2   167  VAL167     -0.2864
    125  CB        -3.1460   29.8390    0.0660 C.3   167  VAL167      0.0276
    126  CG1       -3.8440   30.5110   -1.1890 C.3   167  VAL167      0.0022
    127  CG2       -1.5590   30.2410    0.2200 C.3   167  VAL167      0.0022
    128  N        -14.1810   33.4980    1.1770 N.3   171  GLU171     -0.1231
    129  CA       -15.2980   32.8560    1.8570 C.3   171  GLU171      0.1699
    130  C        -14.8300   32.1190    3.1220 C.2   171  GLU171      0.2592
    131  O        -15.6430   31.8800    4.0210 O.2   171  GLU171     -0.2718
    132  CB       -16.1810   31.9880    0.8680 C.3   171  GLU171      0.0402
    133  CG       -15.6920   30.5430    0.4810 C.3   171  GLU171      0.1161
    134  CD       -14.3180   30.4810   -0.3470 C.2   171  GLU171      0.3649
    135  OE1      -13.9680   31.5480   -0.9610 O.co2 171  GLU171     -0.2457
    136  OE2      -13.5870   29.3700   -0.3710 O.co2 171  GLU171     -0.2457
    137  N        -13.5230   31.8080    3.2520 N.am  172  GLN172     -0.1979
    138  CA       -12.9510   31.2110    4.4920 C.3   172  GLN172      0.1601
    139  C        -12.4790   32.2510    5.5380 C.2   172  GLN172      0.2287
    140  O        -11.8890   31.8580    6.4870 O.2   172  GLN172     -0.2864
    141  CB       -11.6660   30.4350    4.2010 C.3   172  GLN172      0.0394
    142  CG       -11.6720   29.4830    3.0310 C.3   172  GLN172      0.0908
    143  CD       -12.5540   28.3140    3.2620 C.2   172  GLN172      0.2608
    144  OE1      -12.4060   27.6060    4.2750 O.2   172  GLN172     -0.2717
    145  NE2      -13.5020   28.0780    2.3270 N.am  172  GLN172     -0.0878
    146  N        -10.6160   31.7000    9.3270 N.3   176  HIS176     -0.1241
    147  CA        -9.2120   32.1130    9.5690 C.3   176  HIS176      0.1621
    148  C         -9.0350   33.1160   10.6090 C.2   176  HIS176      0.2264
    149  O         -8.0480   33.0160   11.3220 O.2   176  HIS176     -0.2867
    150  CB        -8.5620   32.6190    8.3000 C.3   176  HIS176      0.0745
    151  CG        -8.4260   31.5280    7.3110 C.ar  176  HIS176      0.0817
    152  ND1       -8.2310   31.7410    5.9700 N.ar  176  HIS176     -0.2268
    153  CD2       -8.5120   30.1900    7.4880 C.ar  176  HIS176      0.1154
    154  CE1       -8.1520   30.5740    5.3590 C.ar  176  HIS176      0.1986
    155  NE2       -8.3510   29.6200    6.2570 N.ar  176  HIS176     -0.2212
@<TRIPOS>BOND
     1    31    30   ar
     2    31    29   ar
     3    30    28   ar
     4    29    27   ar
     5    28    26   ar
     6    27    26   ar
     7    26    25    1
     8    35    34    2
     9    25    22    1
    10    16    14    1
    11    34    33    1
    12    15    13    1
    13   126   125    1
    14   135   134   ar
    15    14    13    1
    16    22    23    1
    17    22    21    1
    18   136   134   ar
    19   134   133    1
    20    13    10    1
    21    23    24    2
    22    23    32   am
    23    33    32    1
    24    33    36    1
    25   125   127    1
    26   125   122    1
    27    21    19   am
    28    36    37    1
    29   133   132    1
    30    20    19    2
    31   132   129    1
    32    19    18    1
    33    44    43    2
    34    12    11    2
    35    10    11    1
    36    10     9    1
    37   128   129    1
    38    41    42    1
    39   123   122    1
    40   123   124    2
    41    11    17   am
    42    43    42    1
    43   122   121    1
    44    39    38   ar
    45     9     3   am
    46    49    50    1
    47    37    38    1
    48   129   130    1
    49    17    18    1
    50    38    40   ar
    51    42    45    1
    52     3     4    2
    53     3     2    1
    54   145   143   am
    55   121   118   am
    56     2     1    1
    57     2     5    1
    58    68    67    2
    59   142   143    1
    60   142   141    1
    61   130   137   am
    62   130   131    2
    63    52    51    2
    64    51    50    1
    65    50    53    1
    66   137   138    1
    67   143   144    2
    68    45    46    1
    69    66    67    1
    70    66    65    1
    71    66    69    1
    72   118   119    2
    73   118   117    1
    74   141   138    1
    75     6     5    1
    76     6     8    1
    77    70    69    1
    78    70    72    1
    79    46    47    1
    80    46    48    1
    81     5     7    1
    82    84    83    1
    83   138   139    1
    84    69    71    1
    85   117   116    1
    86   117   120    1
    87    56    57    2
    88    56    55    1
    89   154   152   ar
    90   154   155   ar
    91   139   140    2
    92    58    55    1
    93    58    59    1
    94    83    81   ar
    95    83    82   ar
    96    81    79   ar
    97   152   151   ar
    98    55    54    1
    99   155   153   ar
   100    93    91   am
   101    82    80   ar
   102    59    61   ar
   103    59    60   ar
   104    92    91    2
   105    61    63   ar
   106    91    90    1
   107    79    78   ar
   108   151   153   ar
   109   151   150    1
   110    60    62   ar
   111    63    64   ar
   112    80    78   ar
   113   150   147    1
   114    78    77    1
   115    90    89    1
   116    62    64   ar
   117   112   110   ar
   118   112   114   ar
   119    97    96    2
   120   115   114    1
   121   100   102   ar
   122   100    99   ar
   123   102   103   ar
   124   146   147    1
   125   110   109   ar
   126    89    86    1
   127   114   113   ar
   128   147   148    1
   129    77    74    1
   130    99    98    1
   131    99   101   ar
   132    98    95    1
   133    96    95    1
   134    96   104   am
   135   103   101   ar
   136    86    87    1
   137    86    85    1
   138    95    94    1
   139    88    87    2
   140   148   149    2
   141   109   108    1
   142   109   111   ar
   143   113   111   ar
   144    74    75    1
   145    74    73    1
   146   105   104    1
   147   105   108    1
   148   105   106    1
   149    76    75    2
   150   107   106    2
