@<TRIPOS>MOLECULE
tmp/3d6yB00.pdb
 158 153 0 0 0
SMALL
GASTEIGER

@<TRIPOS>ATOM
      1  N         60.9380   30.6790   66.9640 N.3   143  PRO143     -0.2102
      2  CA        60.4820   29.4260   67.5860 C.3   143  PRO143      0.1504
      3  C         58.9960   29.3580   67.9470 C.2   143  PRO143      0.2575
      4  O         58.3790   28.3040   67.8710 O.2   143  PRO143     -0.2718
      5  CB        61.3510   29.3270   68.8350 C.3   143  PRO143      0.0282
      6  CG        62.5580   30.0740   68.4820 C.3   143  PRO143      0.0208
      7  CD        62.0320   31.2680   67.7480 C.3   143  PRO143      0.0893
      8  N         58.4220   30.4860   68.3450 N.am  144  GLU144     -0.1980
      9  CA        57.0210   30.5090   68.7590 C.3   144  GLU144      0.1602
     10  C         56.0060   30.6500   67.6410 C.2   144  GLU144      0.2287
     11  O         54.8170   30.4630   67.8720 O.2   144  GLU144     -0.2864
     12  CB        56.7900   31.6260   69.7850 C.3   144  GLU144      0.0415
     13  CG        57.5210   31.4230   71.1060 C.3   144  GLU144      0.1163
     14  CD        57.3850   32.6120   72.0510 C.2   144  GLU144      0.3649
     15  OE1       56.7540   32.4390   73.1160 O.co2 144  GLU144     -0.2457
     16  OE2       57.9070   33.7120   71.7300 O.co2 144  GLU144     -0.2457
     17  N         56.7510   29.5280   64.0020 N.3   146  VAL146     -0.1231
     18  CA        57.1010   28.8350   62.7640 C.3   146  VAL146      0.1692
     19  C         55.9510   27.9050   62.4440 C.2   146  VAL146      0.2592
     20  O         55.3010   27.3870   63.3450 O.2   146  VAL146     -0.2718
     21  CB        58.3060   27.8880   62.8920 C.3   146  VAL146      0.0266
     22  CG1       58.9330   27.6900   61.5310 C.3   146  VAL146      0.0020
     23  CG2       59.2880   28.4000   63.8790 C.3   146  VAL146      0.0020
     24  N         55.7120   27.6750   61.1650 N.am  147  LEU147     -0.1966
     25  CA        54.6480   26.7660   60.7740 C.3   147  LEU147      0.1728
     26  C         55.2080   25.7720   59.7650 C.2   147  LEU147      0.2616
     27  O         56.2730   25.9920   59.1840 O.2   147  LEU147     -0.2715
     28  CB        53.4830   27.5470   60.1510 C.3   147  LEU147      0.0311
     29  CG        52.7220   28.4670   61.1120 C.3   147  LEU147      0.0022
     30  CD1       51.6610   29.2690   60.3650 C.3   147  LEU147      0.0001
     31  CD2       52.0770   27.6230   62.2060 C.3   147  LEU147      0.0001
     32  N         54.5100   24.6640   59.5680 N.am  148  ASN148     -0.1972
     33  CA        54.9680   23.7180   58.5760 C.3   148  ASN148      0.1688
     34  C         54.8390   24.4330   57.2510 C.2   148  ASN148      0.2292
     35  O         55.7320   24.3700   56.4180 O.2   148  ASN148     -0.2864
     36  CB        54.1130   22.4690   58.6150 C.3   148  ASN148      0.1181
     37  CG        54.3430   21.6710   59.8760 C.2   148  ASN148      0.2629
     38  OD1       53.6310   20.7090   60.1720 O.2   148  ASN148     -0.2716
     39  ND2       55.3560   22.0700   60.6350 N.am  148  ASN148     -0.0877
     40  N         57.7000   26.1880   55.4220 N.3   151  TYR151     -0.1241
     41  CA        58.6910   25.4710   54.6340 C.3   151  TYR151      0.1605
     42  C         58.2010   25.0500   53.2570 C.2   151  TYR151      0.2264
     43  O         58.8970   24.3250   52.5520 O.2   151  TYR151     -0.2867
     44  CB        59.1590   24.2270   55.3830 C.3   151  TYR151      0.0534
     45  CG        59.9450   24.5110   56.6440 C.ar  151  TYR151     -0.0201
     46  CD1       59.2990   24.8460   57.8360 C.ar  151  TYR151     -0.0009
     47  CD2       61.3420   24.4480   56.6440 C.ar  151  TYR151     -0.0009
     48  CE1       60.0240   25.1130   59.0030 C.ar  151  TYR151      0.0417
     49  CE2       62.0730   24.7140   57.8010 C.ar  151  TYR151      0.0417
     50  CZ        61.4070   25.0460   58.9770 C.ar  151  TYR151      0.1957
     51  OH        62.1270   25.3100   60.1140 O.3   151  TYR151     -0.2866
     52  N         63.2560   19.4440   59.4100 N.3   169  TYR169     -0.1241
     53  CA        62.9970   20.8610   59.2070 C.3   169  TYR169      0.1605
     54  C         64.0470   21.6110   59.9950 C.2   169  TYR169      0.2264
     55  O         64.2640   21.3210   61.1650 O.2   169  TYR169     -0.2867
     56  CB        61.6200   21.2290   59.7350 C.3   169  TYR169      0.0534
     57  CG        60.4900   20.5980   58.9700 C.ar  169  TYR169     -0.0201
     58  CD1       60.2360   19.2270   59.0510 C.ar  169  TYR169     -0.0009
     59  CD2       59.7170   21.3630   58.1080 C.ar  169  TYR169     -0.0009
     60  CE1       59.2410   18.6390   58.2790 C.ar  169  TYR169      0.0417
     61  CE2       58.7230   20.7890   57.3290 C.ar  169  TYR169      0.0417
     62  CZ        58.4910   19.4330   57.4110 C.ar  169  TYR169      0.1957
     63  OH        57.5340   18.8900   56.5900 O.3   169  TYR169     -0.2866
     64  N         62.7720   32.6020   75.4290 N.3   181  ILE181     -0.1245
     65  CA        62.4050   32.1610   74.0920 C.3   181  ILE181      0.1561
     66  C         61.8990   33.3200   73.2560 C.2   181  ILE181      0.2260
     67  O         62.1980   33.4070   72.0740 O.2   181  ILE181     -0.2867
     68  CB        61.2920   31.0810   74.1420 C.3   181  ILE181      0.0252
     69  CG1       61.7460   29.9160   75.0280 C.3   181  ILE181      0.0019
     70  CG2       60.9960   30.5560   72.7480 C.3   181  ILE181      0.0019
     71  CD1       60.6790   28.8320   75.2990 C.3   181  ILE181      0.0001
     72  N         64.6090   33.4830   64.3480 N.3   186  TYR186     -0.1241
     73  CA        65.3920   32.7270   63.3850 C.3   186  TYR186      0.1605
     74  C         65.9730   33.6240   62.2950 C.2   186  TYR186      0.2264
     75  O         65.3260   34.5760   61.8470 O.2   186  TYR186     -0.2867
     76  CB        64.5160   31.6810   62.7140 C.3   186  TYR186      0.0534
     77  CG        64.0160   30.6040   63.6250 C.ar  186  TYR186     -0.0201
     78  CD1       62.6870   30.2010   63.5780 C.ar  186  TYR186     -0.0009
     79  CD2       64.8780   29.9300   64.4770 C.ar  186  TYR186     -0.0009
     80  CE1       62.2320   29.1510   64.3450 C.ar  186  TYR186      0.0417
     81  CE2       64.4330   28.8810   65.2500 C.ar  186  TYR186      0.0417
     82  CZ        63.1060   28.4890   65.1770 C.ar  186  TYR186      0.1957
     83  OH        62.6590   27.4100   65.9010 O.3   186  TYR186     -0.2866
     84  N         61.2370   16.4700   71.7280 N.3   223  PHE223     -0.1241
     85  CA        60.5820   17.7360   71.9800 C.3   223  PHE223      0.1605
     86  C         59.5370   17.8250   73.0830 C.2   223  PHE223      0.2264
     87  O         58.7180   16.9330   73.2810 O.2   223  PHE223     -0.2867
     88  CB        59.9770   18.2960   70.6990 C.3   223  PHE223      0.0534
     89  CG        59.3440   19.6300   70.9000 C.ar  223  PHE223     -0.0203
     90  CD1       60.1290   20.7570   71.0870 C.ar  223  PHE223     -0.0042
     91  CD2       57.9630   19.7520   70.9900 C.ar  223  PHE223     -0.0042
     92  CE1       59.5450   21.9830   71.3640 C.ar  223  PHE223     -0.0003
     93  CE2       57.3700   20.9790   71.2670 C.ar  223  PHE223     -0.0003
     94  CZ        58.1600   22.0910   71.4550 C.ar  223  PHE223     -0.0000
     95  N         57.8980   21.6420   74.8320 N.3   225  PRO225     -0.2116
     96  CA        58.0200   23.1010   74.9200 C.3   225  PRO225      0.1372
     97  C         58.8690   23.6200   76.0770 C.2   225  PRO225      0.2244
     98  O         59.6190   24.5900   75.9210 O.2   225  PRO225     -0.2868
     99  CB        56.5670   23.5560   75.0170 C.3   225  PRO225      0.0268
    100  CG        55.8620   22.5550   74.1680 C.3   225  PRO225      0.0207
    101  CD        56.4880   21.2560   74.6500 C.3   225  PRO225      0.0892
    102  N         62.7650   22.7980   75.3630 N.3   228  TYR228     -0.1241
    103  CA        63.4360   23.4660   74.2660 C.3   228  TYR228      0.1605
    104  C         64.4240   24.4850   74.7750 C.2   228  TYR228      0.2264
    105  O         65.6090   24.4470   74.4300 O.2   228  TYR228     -0.2867
    106  CB        62.4200   24.1850   73.3870 C.3   228  TYR228      0.0534
    107  CG        63.0350   24.9790   72.2600 C.ar  228  TYR228     -0.0201
    108  CD1       63.5860   24.3430   71.1420 C.ar  228  TYR228     -0.0009
    109  CD2       63.0440   26.3700   72.2970 C.ar  228  TYR228     -0.0009
    110  CE1       64.1270   25.0860   70.0820 C.ar  228  TYR228      0.0417
    111  CE2       63.5730   27.1180   71.2490 C.ar  228  TYR228      0.0417
    112  CZ        64.1090   26.4750   70.1460 C.ar  228  TYR228      0.1957
    113  OH        64.5970   27.2310   69.1060 O.3   228  TYR228     -0.2866
    114  N         69.4000   24.3340   64.1900 N.3   252  GLU252     -0.1245
    115  CA        68.2700   23.6380   64.7970 C.3   252  GLU252      0.1567
    116  C         67.6030   22.7120   63.7790 C.2   252  GLU252      0.2260
    117  O         67.2560   23.1430   62.6830 O.2   252  GLU252     -0.2867
    118  CB        67.2790   24.6900   65.3010 C.3   252  GLU252      0.0388
    119  CG        66.0620   24.1750   66.0190 C.3   252  GLU252      0.1160
    120  CD        65.1000   25.3020   66.4010 C.2   252  GLU252      0.3649
    121  OE1       65.4800   26.1740   67.2160 O.co2 252  GLU252     -0.2457
    122  OE2       63.9630   25.3210   65.8810 O.co2 252  GLU252     -0.2457
    123  N         64.5470   19.7000   63.4450 N.3   254  ILE254     -0.1245
    124  CA        63.4150   19.0090   64.0280 C.3   254  ILE254      0.1561
    125  C         63.0290   17.9130   63.0520 C.2   254  ILE254      0.2260
    126  O         62.8260   18.1610   61.8660 O.2   254  ILE254     -0.2867
    127  CB        62.2070   19.9680   64.2510 C.3   254  ILE254      0.0252
    128  CG1       62.3220   20.6660   65.6030 C.3   254  ILE254      0.0019
    129  CG2       60.9020   19.2090   64.2190 C.3   254  ILE254      0.0019
    130  CD1       63.3310   21.7630   65.6460 C.3   254  ILE254      0.0001
    131  N         60.3840   14.4970   62.8230 N.3   256  PRO256     -0.2116
    132  CA        59.3100   13.7070   63.4400 C.3   256  PRO256      0.1372
    133  C         59.6610   12.2450   63.7350 C.2   256  PRO256      0.2244
    134  O         60.3110   11.5850   62.9290 O.2   256  PRO256     -0.2868
    135  CB        58.1580   13.8520   62.4450 C.3   256  PRO256      0.0268
    136  CG        58.8340   14.1690   61.1480 C.3   256  PRO256      0.0207
    137  CD        59.9490   15.0790   61.5430 C.3   256  PRO256      0.0892
    138  N         51.6960   13.2520   68.5040 N.3   265  GLU265     -0.1245
    139  CA        52.8820   13.6420   67.7590 C.3   265  GLU265      0.1567
    140  C         54.1030   13.8170   68.6410 C.2   265  GLU265      0.2260
    141  O         54.0040   14.2520   69.7870 O.2   265  GLU265     -0.2867
    142  CB        52.6280   14.9160   66.9550 C.3   265  GLU265      0.0388
    143  CG        52.3220   16.1530   67.7620 C.3   265  GLU265      0.1160
    144  CD        52.0190   17.3410   66.8640 C.2   265  GLU265      0.3649
    145  OE1       51.8560   18.4670   67.3810 O.co2 265  GLU265     -0.2457
    146  OE2       51.9390   17.1470   65.6290 O.co2 265  GLU265     -0.2457
    147  N         58.4780   14.8110   68.2040 N.3   267  TYR267     -0.1241
    148  CA        59.5990   15.1800   67.3630 C.3   267  TYR267      0.1605
    149  C         60.9410   15.0360   68.0370 C.2   267  TYR267      0.2264
    150  O         61.0570   15.0970   69.2600 O.2   267  TYR267     -0.2867
    151  CB        59.4530   16.6250   66.9160 C.3   267  TYR267      0.0534
    152  CG        58.1090   16.9240   66.3300 C.ar  267  TYR267     -0.0201
    153  CD1       57.0560   17.3380   67.1340 C.ar  267  TYR267     -0.0009
    154  CD2       57.8760   16.7520   64.9700 C.ar  267  TYR267     -0.0009
    155  CE1       55.7940   17.5770   66.5970 C.ar  267  TYR267      0.0417
    156  CE2       56.6230   16.9830   64.4190 C.ar  267  TYR267      0.0417
    157  CZ        55.5840   17.3960   65.2340 C.ar  267  TYR267      0.1957
    158  OH        54.3430   17.6290   64.6800 O.3   267  TYR267     -0.2866
@<TRIPOS>BOND
     1    43    42    2
     2    42    41    1
     3    41    44    1
     4    41    40    1
     5    44    45    1
     6    35    34    2
     7    63    62    1
     8    45    47   ar
     9    45    46   ar
    10    47    49   ar
    11    34    33    1
    12    61    62   ar
    13    61    59   ar
    14    62    60   ar
    15    49    50   ar
    16    46    48   ar
    17    59    57   ar
    18    60    58   ar
    19    33    36    1
    20    33    32    1
    21    36    37    1
    22    57    58   ar
    23    57    56    1
    24    50    48   ar
    25    50    51    1
    26    27    26    2
    27    53    52    1
    28    53    56    1
    29    53    54    1
    30    32    26   am
    31    26    25    1
    32    37    38    2
    33    37    39   am
    34    54    55    2
    35    28    25    1
    36    28    29    1
    37    30    29    1
    38    25    24    1
    39    29    31    1
    40   136   137    1
    41   136   135    1
    42    24    19   am
    43    22    21    1
    44   137   131    1
    45    75    74    2
    46   126   125    2
    47    74    73    1
    48    19    18    1
    49    19    20    2
    50   135   132    1
    51   117   116    2
    52    76    73    1
    53    76    77    1
    54    18    21    1
    55    18    17    1
    56   131   132    1
    57    21    23    1
    58   134   133    2
    59   125   124    1
    60    73    72    1
    61   132   133    1
    62   123   124    1
    63    78    77   ar
    64    78    80   ar
    65    77    79   ar
    66   116   115    1
    67   124   127    1
    68   114   115    1
    69   129   127    1
    70   127   128    1
    71    80    82   ar
    72   156   154   ar
    73   156   157   ar
    74    79    81   ar
    75   158   157    1
    76   115   118    1
    77   154   152   ar
    78    82    81   ar
    79    82    83    1
    80   157   155   ar
    81   118   119    1
    82   128   130    1
    83   146   144   ar
    84   122   120   ar
    85   119   120    1
    86   152   151    1
    87   152   153   ar
    88   120   121   ar
    89   155   153   ar
    90   144   145   ar
    91   144   143    1
    92   151   148    1
    93   142   139    1
    94   142   143    1
    95     1     2    1
    96     1     7    1
    97   148   149    1
    98   148   147    1
    99     2     3    1
   100     2     5    1
   101    10    11    2
   102    10     9    1
   103     7     6    1
   104   139   138    1
   105   139   140    1
   106     4     3    2
   107     3     8   am
   108   149   150    2
   109     8     9    1
   110     6     5    1
   111   140   141    2
   112     9    12    1
   113   113   112    1
   114    12    13    1
   115   110   112   ar
   116   110   108   ar
   117   112   111   ar
   118    88    89    1
   119    88    85    1
   120    89    91   ar
   121    89    90   ar
   122    91    93   ar
   123    90    92   ar
   124    13    14    1
   125   108   107   ar
   126   111   109   ar
   127    93    94   ar
   128    92    94   ar
   129    84    85    1
   130    16    14   ar
   131    85    86    1
   132    14    15   ar
   133    67    66    2
   134   107   109   ar
   135   107   106    1
   136    70    68    1
   137    86    87    2
   138    66    65    1
   139   106   103    1
   140    65    68    1
   141    65    64    1
   142    68    69    1
   143   100   101    1
   144   100    99    1
   145   103   104    1
   146   103   102    1
   147   105   104    2
   148   101    95    1
   149    95    96    1
   150    96    99    1
   151    96    97    1
   152    69    71    1
   153    98    97    2
