@<TRIPOS>MOLECULE
tmp/3d6zB00.pdb
 178 173 0 0 0
SMALL
GASTEIGER

@<TRIPOS>ATOM
      1  N         61.0620   30.3490   66.8140 N.3   143  PRO143     -0.2102
      2  CA        60.5740   29.0620   67.3270 C.3   143  PRO143      0.1504
      3  C         59.0820   29.0500   67.6450 C.2   143  PRO143      0.2575
      4  O         58.4320   28.0210   67.5410 O.2   143  PRO143     -0.2718
      5  CB        61.3980   28.8490   68.5990 C.3   143  PRO143      0.0282
      6  CG        62.6100   29.6780   68.3930 C.3   143  PRO143      0.0208
      7  CD        62.0790   30.9120   67.7130 C.3   143  PRO143      0.0893
      8  N         58.5390   30.1980   68.0340 N.am  144  GLU144     -0.1980
      9  CA        57.1330   30.2620   68.4090 C.3   144  GLU144      0.1602
     10  C         56.1380   30.4190   67.2750 C.2   144  GLU144      0.2287
     11  O         54.9480   30.1780   67.4710 O.2   144  GLU144     -0.2864
     12  CB        56.9050   31.3860   69.4230 C.3   144  GLU144      0.0415
     13  CG        57.7790   31.3020   70.6700 C.3   144  GLU144      0.1163
     14  CD        57.4430   32.3770   71.6910 C.2   144  GLU144      0.3649
     15  OE1       56.4260   32.2200   72.4030 O.co2 144  GLU144     -0.2457
     16  OE2       58.1900   33.3810   71.7690 O.co2 144  GLU144     -0.2457
     17  N         56.9750   29.4520   63.6420 N.3   146  VAL146     -0.1231
     18  CA        57.3130   28.7010   62.4230 C.3   146  VAL146      0.1692
     19  C         56.1590   27.7590   62.1130 C.2   146  VAL146      0.2592
     20  O         55.5590   27.1820   63.0100 O.2   146  VAL146     -0.2718
     21  CB        58.5260   27.7550   62.5890 C.3   146  VAL146      0.0266
     22  CG1       59.5060   27.9620   61.4570 C.3   146  VAL146      0.0020
     23  CG2       59.1650   27.9360   63.9390 C.3   146  VAL146      0.0020
     24  N         55.8680   27.5850   60.8380 N.am  147  LEU147     -0.1966
     25  CA        54.8050   26.6830   60.4280 C.3   147  LEU147      0.1728
     26  C         55.3660   25.7290   59.3900 C.2   147  LEU147      0.2616
     27  O         56.3910   26.0180   58.7640 O.2   147  LEU147     -0.2715
     28  CB        53.6640   27.4710   59.7920 C.3   147  LEU147      0.0311
     29  CG        52.8990   28.4150   60.7070 C.3   147  LEU147      0.0022
     30  CD1       51.8350   29.1490   59.9010 C.3   147  LEU147      0.0001
     31  CD2       52.2710   27.6110   61.8330 C.3   147  LEU147      0.0001
     32  N         54.7060   24.5920   59.2050 N.am  148  ASN148     -0.1972
     33  CA        55.1540   23.6700   58.1790 C.3   148  ASN148      0.1688
     34  C         55.0240   24.4170   56.8550 C.2   148  ASN148      0.2292
     35  O         55.9020   24.3250   55.9950 O.2   148  ASN148     -0.2864
     36  CB        54.2980   22.4130   58.1690 C.3   148  ASN148      0.1181
     37  CG        54.5980   21.5070   59.3490 C.2   148  ASN148      0.2629
     38  OD1       55.7630   21.2370   59.6550 O.2   148  ASN148     -0.2716
     39  ND2       53.5530   21.0270   60.0150 N.am  148  ASN148     -0.0877
     40  N         57.8180   26.2270   55.0520 N.3   151  TYR151     -0.1241
     41  CA        58.7880   25.4960   54.2370 C.3   151  TYR151      0.1605
     42  C         58.3130   25.1180   52.8370 C.2   151  TYR151      0.2264
     43  O         59.0320   24.4460   52.0960 O.2   151  TYR151     -0.2867
     44  CB        59.2330   24.2190   54.9570 C.3   151  TYR151      0.0534
     45  CG        60.0340   24.4660   56.2140 C.ar  151  TYR151     -0.0201
     46  CD1       59.4150   24.8720   57.4020 C.ar  151  TYR151     -0.0009
     47  CD2       61.4210   24.3330   56.2090 C.ar  151  TYR151     -0.0009
     48  CE1       60.1650   25.1450   58.5520 C.ar  151  TYR151      0.0417
     49  CE2       62.1780   24.6060   57.3500 C.ar  151  TYR151      0.0417
     50  CZ        61.5450   25.0120   58.5130 C.ar  151  TYR151      0.1957
     51  OH        62.2910   25.3030   59.6240 O.3   151  TYR151     -0.2866
     52  N         63.5070   19.3190   59.1360 N.3   169  TYR169     -0.1227
     53  CA        63.2770   20.7420   58.9650 C.3   169  TYR169      0.1736
     54  C         64.3460   21.4730   59.7420 C.2   169  TYR169      0.2596
     55  O         64.6430   21.1120   60.8820 O.2   169  TYR169     -0.2718
     56  CB        61.8970   21.1300   59.4790 C.3   169  TYR169      0.0548
     57  CG        60.7800   20.5560   58.6480 C.ar  169  TYR169     -0.0200
     58  CD1       60.4990   19.1900   58.6690 C.ar  169  TYR169     -0.0009
     59  CD2       60.0200   21.3730   57.8130 C.ar  169  TYR169     -0.0009
     60  CE1       59.4880   18.6500   57.8720 C.ar  169  TYR169      0.0417
     61  CE2       59.0100   20.8460   57.0140 C.ar  169  TYR169      0.0417
     62  CZ        58.7480   19.4840   57.0480 C.ar  169  TYR169      0.1957
     63  OH        57.7480   18.9700   56.2590 O.3   169  TYR169     -0.2866
     64  N         64.9390   22.4870   59.1190 N.am  170  GLY170     -0.1942
     65  CA        65.9940   23.2290   59.7820 C.3   170  GLY170      0.2014
     66  C         65.7480   24.7140   59.9560 C.2   170  GLY170      0.2638
     67  O         64.8780   25.3110   59.3090 O.2   170  GLY170     -0.2714
     68  N         66.5170   25.3050   60.8650 N.am  171  ALA171     -0.1977
     69  CA        66.4630   26.7360   61.1290 C.3   171  ALA171      0.1597
     70  C         67.7940   27.1050   61.7600 C.2   171  ALA171      0.2287
     71  O         68.5040   26.2460   62.2920 O.2   171  ALA171     -0.2864
     72  CB        65.3130   27.0840   62.0760 C.3   171  ALA171      0.0319
     73  N         62.8680   32.4850   75.2020 N.3   181  ILE181     -0.1245
     74  CA        62.4910   32.0920   73.8520 C.3   181  ILE181      0.1561
     75  C         62.0870   33.2880   72.9910 C.2   181  ILE181      0.2260
     76  O         62.5260   33.4180   71.8490 O.2   181  ILE181     -0.2867
     77  CB        61.2980   31.1110   73.8680 C.3   181  ILE181      0.0252
     78  CG1       61.6800   29.8380   74.6080 C.3   181  ILE181      0.0019
     79  CG2       60.9030   30.7400   72.4480 C.3   181  ILE181      0.0019
     80  CD1       62.6710   28.9950   73.8570 C.3   181  ILE181      0.0001
     81  N         64.7580   33.4190   64.1180 N.3   186  TYR186     -0.1241
     82  CA        65.5310   32.6430   63.1550 C.3   186  TYR186      0.1605
     83  C         66.1550   33.5380   62.0810 C.2   186  TYR186      0.2264
     84  O         65.5650   34.5410   61.6690 O.2   186  TYR186     -0.2867
     85  CB        64.6220   31.6300   62.4730 C.3   186  TYR186      0.0534
     86  CG        64.1610   30.5120   63.3650 C.ar  186  TYR186     -0.0201
     87  CD1       62.9050   29.9310   63.1880 C.ar  186  TYR186     -0.0009
     88  CD2       64.9990   29.9900   64.3460 C.ar  186  TYR186     -0.0009
     89  CE1       62.5010   28.8540   63.9630 C.ar  186  TYR186      0.0417
     90  CE2       64.6070   28.9220   65.1240 C.ar  186  TYR186      0.0417
     91  CZ        63.3600   28.3560   64.9270 C.ar  186  TYR186      0.1957
     92  OH        62.9810   27.2850   65.6870 O.3   186  TYR186     -0.2866
     93  N         61.4810   16.2690   71.5260 N.3   223  PHE223     -0.1241
     94  CA        60.8040   17.5110   71.8330 C.3   223  PHE223      0.1605
     95  C         59.7580   17.4870   72.9340 C.2   223  PHE223      0.2264
     96  O         58.9710   16.5500   73.0770 O.2   223  PHE223     -0.2867
     97  CB        60.1710   18.1070   70.5860 C.3   223  PHE223      0.0534
     98  CG        59.5090   19.4210   70.8430 C.ar  223  PHE223     -0.0203
     99  CD1       60.2700   20.5680   71.0210 C.ar  223  PHE223     -0.0042
    100  CD2       58.1250   19.5060   70.9660 C.ar  223  PHE223     -0.0042
    101  CE1       59.6640   21.7860   71.3190 C.ar  223  PHE223     -0.0003
    102  CE2       57.5050   20.7220   71.2660 C.ar  223  PHE223     -0.0003
    103  CZ        58.2790   21.8640   71.4430 C.ar  223  PHE223     -0.0000
    104  N         58.0640   21.1180   74.9600 N.3   225  PRO225     -0.2116
    105  CA        58.1820   22.5590   75.2020 C.3   225  PRO225      0.1372
    106  C         59.0960   22.9430   76.3780 C.2   225  PRO225      0.2244
    107  O         60.0680   23.6860   76.2060 O.2   225  PRO225     -0.2868
    108  CB        56.7360   22.9800   75.4200 C.3   225  PRO225      0.0268
    109  CG        55.9960   22.0600   74.4920 C.3   225  PRO225      0.0207
    110  CD        56.6550   20.7310   74.7770 C.3   225  PRO225      0.0892
    111  N         62.8580   22.6320   75.4080 N.3   228  TYR228     -0.1227
    112  CA        63.4460   23.3520   74.2900 C.3   228  TYR228      0.1736
    113  C         64.4620   24.3760   74.7730 C.2   228  TYR228      0.2595
    114  O         65.6470   24.2740   74.4530 O.2   228  TYR228     -0.2718
    115  CB        62.3580   24.0610   73.4810 C.3   228  TYR228      0.0548
    116  CG        62.8850   24.8060   72.2770 C.ar  228  TYR228     -0.0200
    117  CD1       63.4110   24.1250   71.1740 C.ar  228  TYR228     -0.0009
    118  CD2       62.8680   26.1930   72.2430 C.ar  228  TYR228     -0.0009
    119  CE1       63.9060   24.8200   70.0650 C.ar  228  TYR228      0.0417
    120  CE2       63.3550   26.8950   71.1470 C.ar  228  TYR228      0.0417
    121  CZ        63.8720   26.2090   70.0600 C.ar  228  TYR228      0.1957
    122  OH        64.3410   26.9270   68.9790 O.3   228  TYR228     -0.2866
    123  N         64.0040   25.3510   75.5570 N.am  229  PHE229     -0.1976
    124  CA        64.9020   26.3830   76.0490 C.3   229  PHE229      0.1639
    125  C         65.9790   25.8910   77.0120 C.2   229  PHE229      0.2290
    126  O         67.0870   26.4280   77.0220 O.2   229  PHE229     -0.2864
    127  CB        64.1120   27.5200   76.6900 C.3   229  PHE229      0.0560
    128  CG        64.8950   28.7890   76.8180 C.ar  229  PHE229     -0.0200
    129  CD1       65.3940   29.1950   78.0470 C.ar  229  PHE229     -0.0042
    130  CD2       65.1440   29.5820   75.6990 C.ar  229  PHE229     -0.0042
    131  CE1       66.1300   30.3790   78.1640 C.ar  229  PHE229     -0.0003
    132  CE2       65.8770   30.7650   75.8070 C.ar  229  PHE229     -0.0003
    133  CZ        66.3690   31.1620   77.0410 C.ar  229  PHE229     -0.0000
    134  N         69.5330   24.2030   63.9420 N.3   252  GLU252     -0.1245
    135  CA        68.4460   23.4850   64.5840 C.3   252  GLU252      0.1567
    136  C         67.7820   22.5870   63.5490 C.2   252  GLU252      0.2260
    137  O         67.4500   23.0380   62.4480 O.2   252  GLU252     -0.2867
    138  CB        67.4520   24.5040   65.1300 C.3   252  GLU252      0.0388
    139  CG        66.2790   23.9720   65.9280 C.3   252  GLU252      0.1160
    140  CD        65.3720   25.1140   66.3830 C.2   252  GLU252      0.3649
    141  OE1       65.7680   25.8810   67.2850 O.co2 252  GLU252     -0.2457
    142  OE2       64.2730   25.2710   65.8240 O.co2 252  GLU252     -0.2457
    143  N         64.7530   19.4910   63.0890 N.3   254  ILE254     -0.1245
    144  CA        63.6100   18.8070   63.6540 C.3   254  ILE254      0.1561
    145  C         63.2100   17.6900   62.7180 C.2   254  ILE254      0.2260
    146  O         63.0810   17.8880   61.5080 O.2   254  ILE254     -0.2867
    147  CB        62.4070   19.7760   63.8240 C.3   254  ILE254      0.0252
    148  CG1       62.4940   20.5060   65.1650 C.3   254  ILE254      0.0019
    149  CG2       61.1020   19.0060   63.8010 C.3   254  ILE254      0.0019
    150  CD1       63.7800   21.2170   65.4060 C.3   254  ILE254      0.0001
    151  N         51.8240   12.8930   68.0490 N.3   265  GLU265     -0.1245
    152  CA        53.0160   13.2450   67.2990 C.3   265  GLU265      0.1567
    153  C         54.1980   13.5260   68.2120 C.2   265  GLU265      0.2260
    154  O         54.0510   14.0990   69.2880 O.2   265  GLU265     -0.2867
    155  CB        52.7440   14.4490   66.3970 C.3   265  GLU265      0.0388
    156  CG        52.5410   15.7650   67.1240 C.3   265  GLU265      0.1160
    157  CD        52.1560   16.8780   66.1680 C.2   265  GLU265      0.3649
    158  OE1       52.1950   18.0610   66.5740 O.co2 265  GLU265     -0.2457
    159  OE2       51.8080   16.5590   65.0070 O.co2 265  GLU265     -0.2457
    160  N         58.6450   14.5070   68.0620 N.3   267  TYR267     -0.1241
    161  CA        59.7590   14.9330   67.2320 C.3   267  TYR267      0.1605
    162  C         61.1180   14.8490   67.8810 C.2   267  TYR267      0.2264
    163  O         61.2640   14.9960   69.0930 O.2   267  TYR267     -0.2867
    164  CB        59.5600   16.3790   66.7770 C.3   267  TYR267      0.0534
    165  CG        58.2150   16.6550   66.1610 C.ar  267  TYR267     -0.0201
    166  CD1       57.0960   16.8610   66.9600 C.ar  267  TYR267     -0.0009
    167  CD2       58.0510   16.6740   64.7770 C.ar  267  TYR267     -0.0009
    168  CE1       55.8440   17.0770   66.4070 C.ar  267  TYR267      0.0417
    169  CE2       56.8000   16.8900   64.2090 C.ar  267  TYR267      0.0417
    170  CZ        55.7010   17.0890   65.0340 C.ar  267  TYR267      0.1957
    171  OH        54.4540   17.2900   64.4950 O.3   267  TYR267     -0.2866
    172  N         64.6960   16.6150   68.1750 N.3   269  VAL269     -0.1245
    173  CA        65.2440   17.9390   67.9540 C.3   269  VAL269      0.1561
    174  C         66.7400   17.8750   68.1410 C.2   269  VAL269      0.2260
    175  O         67.2380   17.1470   68.9980 O.2   269  VAL269     -0.2867
    176  CB        64.6730   18.9710   68.9450 C.3   269  VAL269      0.0252
    177  CG1       65.4210   20.2980   68.8070 C.3   269  VAL269      0.0019
    178  CG2       63.2050   19.1740   68.6730 C.3   269  VAL269      0.0019
@<TRIPOS>BOND
     1    43    42    2
     2    42    41    1
     3    41    44    1
     4    41    40    1
     5    44    45    1
     6    35    34    2
     7    47    45   ar
     8    47    49   ar
     9    45    46   ar
    10    63    62    1
    11    34    33    1
    12    61    62   ar
    13    61    59   ar
    14    62    60   ar
    15    49    50   ar
    16    46    48   ar
    17    59    57   ar
    18    60    58   ar
    19    36    33    1
    20    36    37    1
    21    33    32    1
    22    50    48   ar
    23    50    51    1
    24    57    58   ar
    25    57    56    1
    26    27    26    2
    27    53    52    1
    28    53    56    1
    29    53    54    1
    30    64    54   am
    31    64    65    1
    32    32    26   am
    33    67    66    2
    34    37    38    2
    35    37    39   am
    36    26    25    1
    37    54    55    2
    38    65    66    1
    39    28    25    1
    40    28    29    1
    41    30    29    1
    42    66    68   am
    43    25    24    1
    44    29    31    1
    45    24    19   am
    46    68    69    1
    47    69    70    1
    48    69    72    1
    49    22    21    1
    50   146   145    2
    51    84    83    2
    52    70    71    2
    53    83    82    1
    54    19    18    1
    55    19    20    2
    56    18    21    1
    57    18    17    1
    58   137   136    2
    59    85    82    1
    60    85    86    1
    61    21    23    1
    62   145   144    1
    63   143   144    1
    64    82    81    1
    65    87    86   ar
    66    87    89   ar
    67    86    88   ar
    68   136   135    1
    69   144   147    1
    70   149   147    1
    71   147   148    1
    72   134   135    1
    73    89    91   ar
    74   169   167   ar
    75   169   170   ar
    76    88    90   ar
    77   171   170    1
    78   135   138    1
    79   167   165   ar
    80    91    90   ar
    81    91    92    1
    82   159   157   ar
    83   170   168   ar
    84   138   139    1
    85   148   150    1
    86   142   140   ar
    87   139   140    1
    88   165   164    1
    89   165   166   ar
    90   157   158   ar
    91   157   156    1
    92   140   141   ar
    93   155   156    1
    94   155   152    1
    95   168   166   ar
    96   164   161    1
    97     1     2    1
    98     1     7    1
    99   161   162    1
   100   161   160    1
   101    10    11    2
   102    10     9    1
   103   152   151    1
   104   152   153    1
   105     2     3    1
   106     2     5    1
   107     4     3    2
   108     3     8   am
   109     7     6    1
   110   162   163    2
   111   173   174    1
   112   173   172    1
   113   173   176    1
   114     8     9    1
   115   174   175    2
   116   153   154    2
   117     6     5    1
   118     9    12    1
   119   178   176    1
   120   177   176    1
   121   122   121    1
   122    12    13    1
   123   121   119   ar
   124   121   120   ar
   125   119   117   ar
   126    97    98    1
   127    97    94    1
   128    13    14    1
   129    98   100   ar
   130    98    99   ar
   131   100   102   ar
   132    99   101   ar
   133   120   118   ar
   134   117   116   ar
   135   102   103   ar
   136   101   103   ar
   137    93    94    1
   138    14    16   ar
   139    14    15   ar
   140    94    95    1
   141    76    75    2
   142   118   116   ar
   143   116   115    1
   144    79    77    1
   145    95    96    2
   146    75    74    1
   147   115   112    1
   148    74    77    1
   149    74    73    1
   150    80    78    1
   151    77    78    1
   152   112   113    1
   153   112   111    1
   154   114   113    2
   155   109   110    1
   156   109   108    1
   157   113   123   am
   158   110   104    1
   159   104   105    1
   160   105   108    1
   161   105   106    1
   162   123   124    1
   163   130   132   ar
   164   130   128   ar
   165   132   133   ar
   166   124   127    1
   167   124   125    1
   168   107   106    2
   169   127   128    1
   170   128   129   ar
   171   125   126    2
   172   133   131   ar
   173   129   131   ar
