@<TRIPOS>MOLECULE
tmp/3d71B00.pdb
 112 108 0 0 0
SMALL
GASTEIGER

@<TRIPOS>ATOM
      1  N         97.8840   22.1170   67.2850 N.3   143  PRO143     -0.2102
      2  CA        98.3250   23.4100   67.8050 C.3   143  PRO143      0.1504
      3  C         99.8330   23.5070   68.0710 C.2   143  PRO143      0.2575
      4  O        100.4480   24.5380   67.8140 O.2   143  PRO143     -0.2718
      5  CB        97.5160   23.5510   69.0930 C.3   143  PRO143      0.0282
      6  CG        96.3120   22.7560   68.8430 C.3   143  PRO143      0.0208
      7  CD        96.8490   21.5380   68.1560 C.3   143  PRO143      0.0893
      8  N        100.4290   22.4410   68.5870 N.am  144  GLU144     -0.1980
      9  CA       101.8460   22.4810   68.9100 C.3   144  GLU144      0.1602
     10  C        102.6940   21.8410   67.8300 C.2   144  GLU144      0.2287
     11  O        103.8220   21.4190   68.0600 O.2   144  GLU144     -0.2864
     12  CB       102.0660   21.7980   70.2580 C.3   144  GLU144      0.0415
     13  CG       101.4010   20.4470   70.3720 C.3   144  GLU144      0.1163
     14  CD       101.1960   20.0020   71.8150 C.2   144  GLU144      0.3649
     15  OE1      100.6390   18.9010   72.0140 O.co2 144  GLU144     -0.2457
     16  OE2      101.5870   20.7420   72.7460 O.co2 144  GLU144     -0.2457
     17  N        101.8800   22.9480   64.0620 N.3   146  VAL146     -0.1231
     18  CA       101.7980   23.8560   62.9270 C.3   146  VAL146      0.1692
     19  C        103.0110   24.7100   62.6710 C.2   146  VAL146      0.2592
     20  O        103.7530   25.0670   63.5870 O.2   146  VAL146     -0.2718
     21  CB       100.6500   24.8590   63.0730 C.3   146  VAL146      0.0266
     22  CG1       99.6490   24.6750   61.9580 C.3   146  VAL146      0.0020
     23  CG2      100.0240   24.7380   64.4380 C.3   146  VAL146      0.0020
     24  N        103.1660   25.0720   61.4040 N.am  147  LEU147     -0.1966
     25  CA       104.2430   25.9370   60.9640 C.3   147  LEU147      0.1728
     26  C        103.6750   26.8500   59.9040 C.2   147  LEU147      0.2616
     27  O        102.7150   26.5020   59.2190 O.2   147  LEU147     -0.2715
     28  CB       105.3700   25.1230   60.3500 C.3   147  LEU147      0.0311
     29  CG       106.1210   24.2020   61.3050 C.3   147  LEU147      0.0022
     30  CD1      107.1520   23.4460   60.5180 C.3   147  LEU147      0.0001
     31  CD2      106.7730   25.0070   62.4200 C.3   147  LEU147      0.0001
     32  N        104.2640   28.0250   59.7610 N.am  148  ASN148     -0.1972
     33  CA       103.7940   28.9320   58.7390 C.3   148  ASN148      0.1688
     34  C        103.9410   28.2130   57.4010 C.2   148  ASN148      0.2292
     35  O        103.1280   28.4040   56.5030 O.2   148  ASN148     -0.2864
     36  CB       104.6070   30.2240   58.7600 C.3   148  ASN148      0.1181
     37  CG       104.3040   31.0770   59.9780 C.2   148  ASN148      0.2629
     38  OD1      104.3620   30.6040   61.1090 O.2   148  ASN148     -0.2716
     39  ND2      103.9800   32.3410   59.7520 N.am  148  ASN148     -0.0877
     40  N         94.1910   19.5710   64.6340 N.3   186  TYR186     -0.1241
     41  CA        93.4180   20.3390   63.6600 C.3   186  TYR186      0.1605
     42  C         92.7970   19.4240   62.6050 C.2   186  TYR186      0.2264
     43  O         93.4250   18.4570   62.1720 O.2   186  TYR186     -0.2867
     44  CB        94.3280   21.3410   62.9450 C.3   186  TYR186      0.0534
     45  CG        94.9100   22.4390   63.8070 C.ar  186  TYR186     -0.0201
     46  CD1       95.9580   23.2380   63.3330 C.ar  186  TYR186     -0.0009
     47  CD2       94.3950   22.7120   65.0720 C.ar  186  TYR186     -0.0009
     48  CE1       96.4570   24.2920   64.0930 C.ar  186  TYR186      0.0417
     49  CE2       94.8910   23.7620   65.8390 C.ar  186  TYR186      0.0417
     50  CZ        95.9170   24.5410   65.3500 C.ar  186  TYR186      0.1957
     51  OH        96.3800   25.5840   66.1140 O.3   186  TYR186     -0.2866
     52  N         97.4880   35.9960   71.9070 N.3   223  PHE223     -0.1241
     53  CA        98.1530   34.7110   72.0760 C.3   223  PHE223      0.1605
     54  C         99.1660   34.5870   73.1970 C.2   223  PHE223      0.2264
     55  O         99.9600   35.4810   73.4610 O.2   223  PHE223     -0.2867
     56  CB        98.8510   34.2660   70.7980 C.3   223  PHE223      0.0534
     57  CG        99.4730   32.9080   70.9210 C.ar  223  PHE223     -0.0203
     58  CD1       98.6740   31.7650   70.9140 C.ar  223  PHE223     -0.0042
     59  CD2      100.8350   32.7730   71.1630 C.ar  223  PHE223     -0.0042
     60  CE1       99.2220   30.5110   71.1560 C.ar  223  PHE223     -0.0003
     61  CE2      101.3990   31.5210   71.4080 C.ar  223  PHE223     -0.0003
     62  CZ       100.5920   30.3890   71.4070 C.ar  223  PHE223     -0.0000
     63  N         96.1970   30.0940   75.4460 N.3   228  TYR228     -0.1241
     64  CA        95.5490   29.4580   74.3100 C.3   228  TYR228      0.1605
     65  C         94.6090   28.3510   74.7420 C.2   228  TYR228      0.2264
     66  O         93.4650   28.3010   74.3030 O.2   228  TYR228     -0.2867
     67  CB        96.5720   28.8590   73.3560 C.3   228  TYR228      0.0534
     68  CG        95.9440   28.0470   72.2420 C.ar  228  TYR228     -0.0201
     69  CD1       95.3450   28.6650   71.1450 C.ar  228  TYR228     -0.0009
     70  CD2       95.9530   26.6580   72.2850 C.ar  228  TYR228     -0.0009
     71  CE1       94.7720   27.9110   70.1160 C.ar  228  TYR228      0.0417
     72  CE2       95.3900   25.8960   71.2620 C.ar  228  TYR228      0.0417
     73  CZ        94.8050   26.5260   70.1840 C.ar  228  TYR228      0.1957
     74  OH        94.2760   25.7630   69.1710 O.3   228  TYR228     -0.2866
     75  N         89.2180   28.6870   64.3340 N.3   252  GLN252     -0.1245
     76  CA        90.3100   29.4290   64.9320 C.3   252  GLN252      0.1566
     77  C         90.9940   30.3040   63.8960 C.2   252  GLN252      0.2260
     78  O         91.2790   29.8670   62.7820 O.2   252  GLN252     -0.2867
     79  CB        91.2960   28.4280   65.5280 C.3   252  GLN252      0.0367
     80  CG        92.5810   29.0050   66.0400 C.3   252  GLN252      0.0905
     81  CD        93.5810   27.9230   66.3780 C.2   252  GLN252      0.2608
     82  OE1       93.2960   27.0220   67.1700 O.2   252  GLN252     -0.2717
     83  NE2       94.7590   27.9970   65.7690 N.am  252  GLN252     -0.0878
     84  N         94.2000   33.2450   63.6390 N.3   254  ILE254     -0.1245
     85  CA        95.3220   33.8850   64.3250 C.3   254  ILE254      0.1561
     86  C         95.8540   35.0160   63.4550 C.2   254  ILE254      0.2260
     87  O         96.3400   34.7860   62.3500 O.2   254  ILE254     -0.2867
     88  CB        96.4570   32.8640   64.6100 C.3   254  ILE254      0.0252
     89  CG1       95.9920   31.8650   65.6710 C.3   254  ILE254      0.0019
     90  CG2       97.7140   33.5760   65.0580 C.3   254  ILE254      0.0019
     91  CD1       97.0600   30.9110   66.1250 C.3   254  ILE254      0.0001
     92  N        107.0960   39.8020   68.9840 N.3   265  GLU265     -0.1245
     93  CA       105.9100   39.3640   68.2700 C.3   265  GLU265      0.1567
     94  C        104.7080   39.1260   69.1640 C.2   265  GLU265      0.2260
     95  O        104.8480   38.7140   70.3090 O.2   265  GLU265     -0.2867
     96  CB       106.2080   38.0920   67.4900 C.3   265  GLU265      0.0388
     97  CG       106.8220   36.9850   68.3160 C.3   265  GLU265      0.1160
     98  CD       106.8880   35.6920   67.5340 C.2   265  GLU265      0.3649
     99  OE1      107.1910   35.7530   66.3180 O.co2 265  GLU265     -0.2457
    100  OE2      106.6480   34.6170   68.1290 O.co2 265  GLU265     -0.2457
    101  N        100.3440   37.9310   68.6220 N.3   267  TYR267     -0.1241
    102  CA        99.2440   37.5770   67.7440 C.3   267  TYR267      0.1605
    103  C         97.8970   37.6750   68.4310 C.2   267  TYR267      0.2264
    104  O         97.7960   37.5890   69.6540 O.2   267  TYR267     -0.2867
    105  CB        99.4230   36.1470   67.2290 C.3   267  TYR267      0.0534
    106  CG       100.7930   35.8640   66.6700 C.ar  267  TYR267     -0.0201
    107  CD1      101.8990   35.7500   67.5100 C.ar  267  TYR267     -0.0009
    108  CD2      100.9950   35.7380   65.2970 C.ar  267  TYR267     -0.0009
    109  CE1      103.1660   35.5230   66.9980 C.ar  267  TYR267      0.0417
    110  CE2      102.2650   35.5140   64.7770 C.ar  267  TYR267      0.0417
    111  CZ       103.3420   35.4090   65.6350 C.ar  267  TYR267      0.1957
    112  OH       104.6040   35.2080   65.1270 O.3   267  TYR267     -0.2866
@<TRIPOS>BOND
     1    35    34    2
     2    34    33    1
     3    33    36    1
     4    33    32    1
     5    36    37    1
     6    27    26    2
     7    39    37   am
     8    32    26   am
     9    26    25    1
    10    37    38    2
    11    28    25    1
    12    28    29    1
    13    30    29    1
    14    25    24    1
    15    29    31    1
    16    24    19   am
    17    22    21    1
    18    43    42    2
    19    87    86    2
    20    42    41    1
    21    19    18    1
    22    19    20    2
    23    78    77    2
    24    18    21    1
    25    18    17    1
    26    44    41    1
    27    44    45    1
    28    21    23    1
    29    46    45   ar
    30    46    48   ar
    31    86    85    1
    32    84    85    1
    33    41    40    1
    34    45    47   ar
    35    77    76    1
    36    48    50   ar
    37    85    88    1
    38    75    76    1
    39    88    90    1
    40    88    89    1
    41   110   108   ar
    42   110   111   ar
    43    76    79    1
    44    47    49   ar
    45   112   111    1
    46   108   106   ar
    47    50    49   ar
    48    50    51    1
    49    79    80    1
    50   111   109   ar
    51    89    91    1
    52    83    81   am
    53    80    81    1
    54    99    98   ar
    55    81    82    2
    56   106   105    1
    57   106   107   ar
    58   109   107   ar
    59   105   102    1
    60     1     2    1
    61     1     7    1
    62    96    93    1
    63    96    97    1
    64    98   100   ar
    65    98    97    1
    66   102   103    1
    67   102   101    1
    68     2     3    1
    69     2     5    1
    70     4     3    2
    71    10    11    2
    72    10     9    1
    73     3     8   am
    74     7     6    1
    75    93    92    1
    76    93    94    1
    77   103   104    2
    78     8     9    1
    79     6     5    1
    80     9    12    1
    81    94    95    2
    82    74    73    1
    83    71    73   ar
    84    71    69   ar
    85    73    72   ar
    86    12    13    1
    87    13    14    1
    88    56    57    1
    89    56    53    1
    90    58    57   ar
    91    58    60   ar
    92    57    59   ar
    93    69    68   ar
    94    60    62   ar
    95    59    61   ar
    96    72    70   ar
    97    62    61   ar
    98    14    15   ar
    99    14    16   ar
   100    52    53    1
   101    53    54    1
   102    68    70   ar
   103    68    67    1
   104    54    55    2
   105    67    64    1
   106    66    65    2
   107    64    65    1
   108    64    63    1
