@<TRIPOS>MOLECULE
tmp/3d74B01.pdb
 114 110 0 0 0
SMALL
GASTEIGER

@<TRIPOS>ATOM
      1  N         18.8520   33.6270  -12.5130 N.3     4  TRP4       -0.1241
      2  CA        20.2820   33.3470  -12.7940 C.3     4  TRP4        0.1605
      3  C         20.7650   33.7580  -14.1870 C.2     4  TRP4        0.2264
      4  O         21.9710   33.8290  -14.4560 O.2     4  TRP4       -0.2867
      5  CB        20.5830   31.8550  -12.6180 C.3     4  TRP4        0.0550
      6  CG        19.8870   30.9120  -13.5830 C.ar    4  TRP4        0.0003
      7  CD1       18.7320   30.2340  -13.3630 C.ar    4  TRP4        0.0946
      8  CD2       20.3200   30.5350  -14.9100 C.ar    4  TRP4        0.0152
      9  NE1       18.4180   29.4730  -14.4530 N.ar    4  TRP4       -0.2442
     10  CE2       19.3740   29.6430  -15.4150 C.ar    4  TRP4        0.0810
     11  CE3       21.4060   30.8820  -15.7150 C.ar    4  TRP4        0.0012
     12  CZ2       19.4820   29.0880  -16.6870 C.ar    4  TRP4        0.0191
     13  CZ3       21.5050   30.3350  -16.9750 C.ar    4  TRP4        0.0001
     14  CH2       20.5660   29.4530  -17.4480 C.ar    4  TRP4        0.0015
     15  N         22.3890   35.3240  -17.1260 N.3     6  PRO6       -0.2116
     16  CA        23.2920   36.4940  -17.1580 C.3     6  PRO6        0.1372
     17  C         22.6780   37.7650  -17.8010 C.2     6  PRO6        0.2244
     18  O         22.0680   37.6770  -18.8660 O.2     6  PRO6       -0.2868
     19  CB        24.4770   35.9970  -18.0040 C.3     6  PRO6        0.0268
     20  CG        24.4660   34.5280  -17.8940 C.3     6  PRO6        0.0207
     21  CD        23.0150   34.1250  -17.7180 C.3     6  PRO6        0.0892
     22  N         23.8920   40.0720  -19.5000 N.3     8  GLU8       -0.1231
     23  CA        24.4550   40.3020  -20.8030 C.3     8  GLU8        0.1699
     24  C         23.6660   39.6190  -21.9180 C.2     8  GLU8        0.2592
     25  O         23.5650   40.1510  -23.0160 O.2     8  GLU8       -0.2718
     26  CB        25.9110   39.8210  -20.8090 C.3     8  GLU8        0.0402
     27  CG        26.8690   40.6940  -20.0010 C.3     8  GLU8        0.1161
     28  CD        26.7590   40.5210  -18.4660 C.2     8  GLU8        0.3649
     29  OE1       26.3340   39.4500  -17.9490 O.co2   8  GLU8       -0.2457
     30  OE2       27.1000   41.5020  -17.7870 O.co2   8  GLU8       -0.2457
     31  N         23.1070   38.4380  -21.6470 N.am    9  VAL9       -0.1980
     32  CA        22.4430   37.6710  -22.7080 C.3     9  VAL9        0.1595
     33  C         21.1860   38.3910  -23.2030 C.2     9  VAL9        0.2287
     34  O         20.7730   38.2070  -24.3490 O.2     9  VAL9       -0.2864
     35  CB        22.1170   36.2020  -22.2950 C.3     9  VAL9        0.0276
     36  CG1       20.7570   36.0760  -21.5480 C.3     9  VAL9        0.0022
     37  CG2       22.1190   35.3130  -23.5480 C.3     9  VAL9        0.0022
     38  N         22.5860   40.5770  -25.8070 N.3    12  LEU12      -0.1245
     39  CA        23.2750   39.7780  -26.7890 C.3    12  LEU12       0.1561
     40  C         22.2880   39.1170  -27.7610 C.2    12  LEU12       0.2260
     41  O         22.5190   39.1090  -28.9580 O.2    12  LEU12      -0.2867
     42  CB        24.1750   38.7530  -26.0910 C.3    12  LEU12       0.0270
     43  CG        25.0100   37.9700  -27.0660 C.3    12  LEU12       0.0019
     44  CD1       25.9380   38.9690  -27.8420 C.3    12  LEU12       0.0001
     45  CD2       25.7600   36.8200  -26.3370 C.3    12  LEU12       0.0001
     46  N         19.0630   29.2440  -30.9660 N.3    53  LEU53      -0.1245
     47  CA        20.2100   28.3570  -30.7790 C.3    53  LEU53       0.1561
     48  C         21.1600   28.4340  -31.9640 C.2    53  LEU53       0.2260
     49  O         22.3650   28.4270  -31.8020 O.2    53  LEU53      -0.2867
     50  CB        19.7690   26.8840  -30.5430 C.3    53  LEU53       0.0270
     51  CG        19.1860   26.5300  -29.1780 C.3    53  LEU53       0.0019
     52  CD1       18.5520   25.1170  -29.2040 C.3    53  LEU53       0.0001
     53  CD2       20.1880   26.6440  -28.0660 C.3    53  LEU53       0.0001
     54  N         23.3890   31.4740  -32.0840 N.3    56  PHE56      -0.1241
     55  CA        24.5760   31.3670  -31.2400 C.3    56  PHE56       0.1605
     56  C         25.4660   30.1970  -31.5780 C.2    56  PHE56       0.2264
     57  O         26.3420   29.8190  -30.7870 O.2    56  PHE56      -0.2867
     58  CB        24.1510   31.4120  -29.7740 C.3    56  PHE56       0.0534
     59  CG        23.3900   32.6720  -29.4640 C.ar   56  PHE56      -0.0203
     60  CD1       23.5660   33.8070  -30.2610 C.ar   56  PHE56      -0.0042
     61  CD2       22.5000   32.7380  -28.4550 C.ar   56  PHE56      -0.0042
     62  CE1       22.8800   34.9760  -30.0280 C.ar   56  PHE56      -0.0003
     63  CE2       21.8070   33.9270  -28.2030 C.ar   56  PHE56      -0.0003
     64  CZ        21.9950   35.0250  -28.9890 C.ar   56  PHE56      -0.0000
     65  N         24.7150   27.1320  -31.7010 N.3    58  LEU58      -0.1245
     66  CA        24.6410   26.0370  -30.7450 C.3    58  LEU58       0.1561
     67  C         23.9850   24.8130  -31.3350 C.2    58  LEU58       0.2260
     68  O         24.0390   23.7520  -30.7290 O.2    58  LEU58      -0.2867
     69  CB        23.9450   26.4600  -29.4650 C.3    58  LEU58       0.0270
     70  CG        24.7170   27.5000  -28.6580 C.3    58  LEU58       0.0019
     71  CD1       23.9380   27.8350  -27.4290 C.3    58  LEU58       0.0001
     72  CD2       26.1740   27.0460  -28.3130 C.3    58  LEU58       0.0001
     73  N         27.4140   25.0360  -25.4840 N.3    70  MET70      -0.1245
     74  CA        26.2170   25.2450  -24.6760 C.3    70  MET70       0.1570
     75  C         26.5210   25.2310  -23.1740 C.2    70  MET70       0.2261
     76  O         26.1310   26.1290  -22.4660 O.2    70  MET70      -0.2867
     77  CB        25.1350   24.2110  -24.9650 C.3    70  MET70       0.0387
     78  CG        23.8600   24.5110  -24.1620 C.3    70  MET70       0.0595
     79  SD        22.4970   23.4260  -24.5710 S.3    70  MET70      -0.1393
     80  CE        21.9390   24.2050  -26.0790 C.3    70  MET70       0.0692
     81  N         28.8690   28.1630  -21.8690 N.3    73  LEU73      -0.1231
     82  CA        28.2080   29.4860  -21.7940 C.3    73  LEU73       0.1693
     83  C         27.3730   29.6850  -20.5300 C.2    73  LEU73       0.2592
     84  O         27.0250   30.8060  -20.1860 O.2    73  LEU73      -0.2718
     85  CB        27.3230   29.7240  -23.0490 C.3    73  LEU73       0.0284
     86  CG        28.0780   30.0610  -24.3580 C.3    73  LEU73       0.0019
     87  CD1       27.1470   30.2170  -25.5870 C.3    73  LEU73       0.0001
     88  CD2       28.9490   31.3050  -24.1540 C.3    73  LEU73       0.0001
     89  N         27.0710   28.5940  -19.8370 N.am   74  LEU74      -0.1966
     90  CA        26.2180   28.6420  -18.6580 C.3    74  LEU74       0.1713
     91  C         27.0520   29.0430  -17.4740 C.2    74  LEU74       0.2458
     92  O         28.2370   28.7290  -17.3990 O.2    74  LEU74      -0.2730
     93  CB        25.6120   27.2650  -18.3640 C.3    74  LEU74       0.0310
     94  CG        24.4450   26.8100  -19.2250 C.3    74  LEU74       0.0022
     95  CD1       24.1580   25.3320  -18.9480 C.3    74  LEU74       0.0001
     96  CD2       23.2270   27.6740  -18.8960 C.3    74  LEU74       0.0001
     97  N         26.4480   29.7420  -16.5310 N.am   75  PRO75      -0.2727
     98  CA        27.1920   30.0320  -15.3110 C.3    75  PRO75       0.1402
     99  C         27.5940   28.7910  -14.5540 C.2    75  PRO75       0.2269
    100  O         26.9370   27.7580  -14.6800 O.2    75  PRO75      -0.2865
    101  CB        26.1600   30.8050  -14.4940 C.3    75  PRO75       0.0296
    102  CG        25.3840   31.5040  -15.5170 C.3    75  PRO75       0.0237
    103  CD        25.1400   30.3990  -16.5150 C.3    75  PRO75       0.0939
    104  N         15.9640   27.8900  -20.2570 N.3   117  PHE117     -0.1241
    105  CA        15.2930   29.1850  -20.1860 C.3   117  PHE117      0.1605
    106  C         15.1130   29.7160  -21.6010 C.2   117  PHE117      0.2264
    107  O         15.9190   29.4040  -22.4820 O.2   117  PHE117     -0.2867
    108  CB        16.0970   30.1660  -19.3420 C.3   117  PHE117      0.0534
    109  CG        17.2420   30.7620  -20.0630 C.ar  117  PHE117     -0.0203
    110  CD1       18.4560   30.0990  -20.1220 C.ar  117  PHE117     -0.0042
    111  CD2       17.1060   31.9890  -20.7200 C.ar  117  PHE117     -0.0042
    112  CE1       19.5110   30.6450  -20.8250 C.ar  117  PHE117     -0.0003
    113  CE2       18.1770   32.5400  -21.4160 C.ar  117  PHE117     -0.0003
    114  CZ        19.3620   31.8690  -21.4770 C.ar  117  PHE117     -0.0000
@<TRIPOS>BOND
     1    54    55    1
     2    48    49    2
     3    48    47    1
     4    65    66    1
     5    56    55    1
     6    56    57    2
     7    67    66    1
     8    67    68    2
     9    55    58    1
    10    46    47    1
    11    47    50    1
    12    66    69    1
    13    50    51    1
    14    60    62   ar
    15    60    59   ar
    16    62    64   ar
    17    58    59    1
    18    69    70    1
    19    59    61   ar
    20    52    51    1
    21    51    53    1
    22    64    63   ar
    23    41    40    2
    24    70    72    1
    25    70    71    1
    26    61    63   ar
    27    44    43    1
    28    40    39    1
    29    43    45    1
    30    43    42    1
    31    39    42    1
    32    39    38    1
    33    80    79    1
    34    87    86    1
    35    73    74    1
    36    77    74    1
    37    77    78    1
    38    74    75    1
    39    79    78    1
    40    86    88    1
    41    86    85    1
    42    34    33    2
    43    37    35    1
    44    33    32    1
    45    75    76    2
    46    85    82    1
    47    25    24    2
    48    32    35    1
    49    32    31    1
    50   107   106    2
    51    35    36    1
    52    24    31   am
    53    24    23    1
    54    81    82    1
    55    82    83    1
    56   106   105    1
    57   114   113   ar
    58   114   112   ar
    59   113   111   ar
    60   112   110   ar
    61    26    23    1
    62    26    27    1
    63    23    22    1
    64   111   109   ar
    65    83    84    2
    66    83    89   am
    67   104   105    1
    68   105   108    1
    69   110   109   ar
    70   109   108    1
    71    27    28    1
    72    89    90    1
    73    94    95    1
    74    94    96    1
    75    94    93    1
    76    18    17    2
    77    90    93    1
    78    90    91    1
    79    28    29   ar
    80    28    30   ar
    81    19    20    1
    82    19    16    1
    83    20    21    1
    84    17    16    1
    85    21    15    1
    86    91    92    2
    87    91    97   am
    88    14    13   ar
    89    14    12   ar
    90    16    15    1
    91    13    11   ar
    92    12    10   ar
    93    97   103    1
    94    97    98    1
    95   103   102    1
    96    11     8   ar
    97   102   101    1
    98    10     8   ar
    99    10     9   ar
   100    98    99    1
   101    98   101    1
   102     8     6   ar
   103   100    99    2
   104     4     3    2
   105     9     7   ar
   106     3     2    1
   107     6     7   ar
   108     6     5    1
   109     2     5    1
   110     2     1    1
