@<TRIPOS>MOLECULE
tmp/3d74B00.pdb
 128 122 0 0 0
SMALL
GASTEIGER

@<TRIPOS>ATOM
      1  N         23.1070   38.4380  -21.6470 N.3     9  VAL9       -0.1245
      2  CA        22.4430   37.6710  -22.7080 C.3     9  VAL9        0.1561
      3  C         21.1860   38.3910  -23.2030 C.2     9  VAL9        0.2260
      4  O         20.7730   38.2070  -24.3490 O.2     9  VAL9       -0.2867
      5  CB        22.1170   36.2020  -22.2950 C.3     9  VAL9        0.0252
      6  CG1       20.7570   36.0760  -21.5480 C.3     9  VAL9        0.0019
      7  CG2       22.1190   35.3130  -23.5480 C.3     9  VAL9        0.0019
      8  N         21.1650   38.6320  -27.2500 N.3    13  VAL13      -0.1245
      9  CA        20.1460   38.0190  -28.0920 C.3    13  VAL13       0.1561
     10  C         19.1910   38.9700  -28.7710 C.2    13  VAL13       0.2260
     11  O         18.4250   38.5370  -29.6400 O.2    13  VAL13      -0.2867
     12  CB        19.2640   37.0330  -27.3070 C.3    13  VAL13       0.0252
     13  CG1       20.1180   36.0780  -26.4930 C.3    13  VAL13       0.0019
     14  CG2       18.3150   37.7840  -26.3940 C.3    13  VAL13       0.0019
     15  N         13.0090   28.6560  -30.5720 N.3    49  MET49      -0.1245
     16  CA        14.1440   28.1700  -29.7890 C.3    49  MET49       0.1570
     17  C         15.2710   27.6220  -30.6630 C.2    49  MET49       0.2261
     18  O         16.4710   27.9150  -30.4220 O.2    49  MET49      -0.2867
     19  CB        13.6920   27.1190  -28.7860 C.3    49  MET49       0.0387
     20  CG        12.7380   27.6360  -27.7420 C.3    49  MET49       0.0595
     21  SD        12.3650   26.4400  -26.4210 S.3    49  MET49      -0.1393
     22  CE        11.3980   25.2080  -27.3220 C.3    49  MET49       0.0692
     23  N         17.0530   30.6840  -32.2570 N.3    52  LEU52      -0.1231
     24  CA        17.8860   31.3710  -31.2820 C.3    52  LEU52       0.1693
     25  C         19.1890   30.5700  -31.0730 C.2    52  LEU52       0.2591
     26  O         20.2680   31.1450  -31.0390 O.2    52  LEU52      -0.2718
     27  CB        17.0790   31.5490  -29.9850 C.3    52  LEU52       0.0284
     28  CG        16.9080   32.9160  -29.3720 C.3    52  LEU52       0.0019
     29  CD1       16.6740   33.9400  -30.4470 C.3    52  LEU52       0.0001
     30  CD2       15.7950   32.9340  -28.2760 C.3    52  LEU52       0.0001
     31  N         19.0630   29.2440  -30.9660 N.am   53  LEU53      -0.1980
     32  CA        20.2100   28.3570  -30.7790 C.3    53  LEU53       0.1596
     33  C         21.1600   28.4340  -31.9640 C.2    53  LEU53       0.2287
     34  O         22.3650   28.4270  -31.8020 O.2    53  LEU53      -0.2864
     35  CB        19.7690   26.8840  -30.5430 C.3    53  LEU53       0.0297
     36  CG        19.1860   26.5300  -29.1780 C.3    53  LEU53       0.0022
     37  CD1       18.5520   25.1170  -29.2040 C.3    53  LEU53       0.0001
     38  CD2       20.1880   26.6440  -28.0660 C.3    53  LEU53       0.0001
     39  N         23.3890   31.4740  -32.0840 N.3    56  PHE56      -0.1241
     40  CA        24.5760   31.3670  -31.2400 C.3    56  PHE56       0.1605
     41  C         25.4660   30.1970  -31.5780 C.2    56  PHE56       0.2264
     42  O         26.3420   29.8190  -30.7870 O.2    56  PHE56      -0.2867
     43  CB        24.1510   31.4120  -29.7740 C.3    56  PHE56       0.0534
     44  CG        23.3900   32.6720  -29.4640 C.ar   56  PHE56      -0.0203
     45  CD1       23.5660   33.8070  -30.2610 C.ar   56  PHE56      -0.0042
     46  CD2       22.5000   32.7380  -28.4550 C.ar   56  PHE56      -0.0042
     47  CE1       22.8800   34.9760  -30.0280 C.ar   56  PHE56      -0.0003
     48  CE2       21.8070   33.9270  -28.2030 C.ar   56  PHE56      -0.0003
     49  CZ        21.9950   35.0250  -28.9890 C.ar   56  PHE56      -0.0000
     50  N         24.7150   27.1320  -31.7010 N.3    58  LEU58      -0.1245
     51  CA        24.6410   26.0370  -30.7450 C.3    58  LEU58       0.1561
     52  C         23.9850   24.8130  -31.3350 C.2    58  LEU58       0.2260
     53  O         24.0390   23.7520  -30.7290 O.2    58  LEU58      -0.2867
     54  CB        23.9450   26.4600  -29.4650 C.3    58  LEU58       0.0270
     55  CG        24.7170   27.5000  -28.6580 C.3    58  LEU58       0.0019
     56  CD1       23.9380   27.8350  -27.4290 C.3    58  LEU58       0.0001
     57  CD2       26.1740   27.0460  -28.3130 C.3    58  LEU58       0.0001
     58  N         27.4140   25.0360  -25.4840 N.3    70  MET70      -0.1245
     59  CA        26.2170   25.2450  -24.6760 C.3    70  MET70       0.1570
     60  C         26.5210   25.2310  -23.1740 C.2    70  MET70       0.2261
     61  O         26.1310   26.1290  -22.4660 O.2    70  MET70      -0.2867
     62  CB        25.1350   24.2110  -24.9650 C.3    70  MET70       0.0387
     63  CG        23.8600   24.5110  -24.1620 C.3    70  MET70       0.0595
     64  SD        22.4970   23.4260  -24.5710 S.3    70  MET70      -0.1393
     65  CE        21.9390   24.2050  -26.0790 C.3    70  MET70       0.0692
     66  N         27.0710   28.5940  -19.8370 N.3    74  LEU74      -0.1245
     67  CA        26.2180   28.6420  -18.6580 C.3    74  LEU74       0.1561
     68  C         27.0520   29.0430  -17.4740 C.2    74  LEU74       0.2260
     69  O         28.2370   28.7290  -17.3990 O.2    74  LEU74      -0.2867
     70  CB        25.6120   27.2650  -18.3640 C.3    74  LEU74       0.0270
     71  CG        24.4450   26.8100  -19.2250 C.3    74  LEU74       0.0019
     72  CD1       24.1580   25.3320  -18.9480 C.3    74  LEU74       0.0001
     73  CD2       23.2270   27.6740  -18.8960 C.3    74  LEU74       0.0001
     74  N         22.2940   17.1180  -19.5350 N.3    86  MET86      -0.1245
     75  CA        22.5750   17.1240  -20.9710 C.3    86  MET86       0.1570
     76  C         23.1870   15.8150  -21.4470 C.2    86  MET86       0.2261
     77  O         23.0040   15.4240  -22.5990 O.2    86  MET86      -0.2867
     78  CB        23.4890   18.2930  -21.3360 C.3    86  MET86       0.0387
     79  CG        22.8670   19.6650  -21.0920 C.3    86  MET86       0.0595
     80  SD        21.5210   20.0690  -22.1820 S.3    86  MET86      -0.1393
     81  CE        21.1620   21.7390  -21.6250 C.3    86  MET86       0.0692
     82  N         16.6310   25.2510  -15.7690 N.3   115  VAL115     -0.1231
     83  CA        17.8430   25.2260  -16.5680 C.3   115  VAL115      0.1692
     84  C         17.6020   25.6070  -18.0440 C.2   115  VAL115      0.2592
     85  O         18.4060   26.2850  -18.6470 O.2   115  VAL115     -0.2718
     86  CB        18.5500   23.8750  -16.5190 C.3   115  VAL115      0.0266
     87  CG1       19.5220   23.7450  -17.5910 C.3   115  VAL115      0.0020
     88  CG2       19.1760   23.6090  -15.1730 C.3   115  VAL115      0.0020
     89  N         16.5030   25.1270  -18.5980 N.am  116  TRP116     -0.1962
     90  CA        16.0790   25.4570  -19.9590 C.3   116  TRP116      0.1771
     91  C         15.2970   26.7820  -19.9780 C.2   116  TRP116      0.2620
     92  O         14.1120   26.8050  -19.7020 O.2   116  TRP116     -0.2715
     93  CB        15.2120   24.3410  -20.5670 C.3   116  TRP116      0.0590
     94  CG        15.0660   24.6070  -22.0270 C.ar  116  TRP116      0.0006
     95  CD1       14.1080   25.3640  -22.6350 C.ar  116  TRP116      0.0946
     96  CD2       15.9910   24.2370  -23.0330 C.ar  116  TRP116      0.0152
     97  NE1       14.3620   25.4470  -23.9750 N.ar  116  TRP116     -0.2442
     98  CE2       15.5140   24.7640  -24.2520 C.ar  116  TRP116      0.0810
     99  CE3       17.1810   23.4950  -23.0300 C.ar  116  TRP116      0.0012
    100  CZ2       16.1820   24.5820  -25.4550 C.ar  116  TRP116      0.0191
    101  CZ3       17.8480   23.3020  -24.2400 C.ar  116  TRP116      0.0001
    102  CH2       17.3520   23.8560  -25.4310 C.ar  116  TRP116      0.0015
    103  N         15.9640   27.8900  -20.2570 N.am  117  PHE117     -0.1960
    104  CA        15.2930   29.1850  -20.1860 C.3   117  PHE117      0.1771
    105  C         15.1130   29.7160  -21.6010 C.2   117  PHE117      0.2619
    106  O         15.9190   29.4040  -22.4820 O.2   117  PHE117     -0.2715
    107  CB        16.0970   30.1660  -19.3420 C.3   117  PHE117      0.0574
    108  CG        17.2420   30.7620  -20.0630 C.ar  117  PHE117     -0.0200
    109  CD1       18.4560   30.0990  -20.1220 C.ar  117  PHE117     -0.0042
    110  CD2       17.1060   31.9890  -20.7200 C.ar  117  PHE117     -0.0042
    111  CE1       19.5110   30.6450  -20.8250 C.ar  117  PHE117     -0.0003
    112  CE2       18.1770   32.5400  -21.4160 C.ar  117  PHE117     -0.0003
    113  CZ        19.3620   31.8690  -21.4770 C.ar  117  PHE117     -0.0000
    114  N         14.0590   30.5090  -21.8150 N.am  118  VAL118     -0.1963
    115  CA        13.8160   31.1000  -23.1270 C.3   118  VAL118      0.1727
    116  C         13.5760   32.5840  -22.9470 C.2   118  VAL118      0.2616
    117  O         12.9950   33.0090  -21.9530 O.2   118  VAL118     -0.2715
    118  CB        12.6710   30.4140  -23.8850 C.3   118  VAL118      0.0290
    119  CG1       12.5900   30.9380  -25.2960 C.3   118  VAL118      0.0023
    120  CG2       12.9220   28.9230  -23.9470 C.3   118  VAL118      0.0023
    121  N         14.1160   33.3840  -23.8660 N.am  119  ILE119     -0.1977
    122  CA        13.9130   34.8180  -23.8030 C.3   119  ILE119      0.1596
    123  C         13.6600   35.3690  -25.1880 C.2   119  ILE119      0.2287
    124  O         13.7990   34.6420  -26.1670 O.2   119  ILE119     -0.2864
    125  CB        15.0870   35.5730  -23.1070 C.3   119  ILE119      0.0276
    126  CG1       16.4220   35.3770  -23.8310 C.3   119  ILE119      0.0022
    127  CG2       15.1950   35.2250  -21.5940 C.3   119  ILE119      0.0022
    128  CD1       17.4950   36.3160  -23.3020 C.3   119  ILE119      0.0001
@<TRIPOS>BOND
     1    23    24    1
     2    39    40    1
     3    33    34    2
     4    33    32    1
     5    50    51    1
     6    41    40    1
     7    41    42    2
     8    52    51    1
     9    52    53    2
    10    24    25    1
    11    24    27    1
    12    40    43    1
    13    25    26    2
    14    25    31   am
    15    31    32    1
    16    32    35    1
    17    51    54    1
    18    17    18    2
    19    17    16    1
    20    15    16    1
    21    35    36    1
    22    29    28    1
    23    45    47   ar
    24    45    44   ar
    25    47    49   ar
    26    27    28    1
    27    16    19    1
    28    43    44    1
    29    11    10    2
    30    54    55    1
    31    44    46   ar
    32    28    30    1
    33    37    36    1
    34    36    38    1
    35    49    48   ar
    36    19    20    1
    37    10     9    1
    38    55    57    1
    39    55    56    1
    40    46    48   ar
    41     9    12    1
    42     9     8    1
    43    20    21    1
    44    22    21    1
    45    12    13    1
    46    12    14    1
    47   124   123    2
    48    65    64    1
    49    58    59    1
    50   100   102   ar
    51   100    98   ar
    52   102   101   ar
    53   119   118    1
    54   123   122    1
    55    62    59    1
    56    62    63    1
    57    59    60    1
    58    64    63    1
    59     4     3    2
    60    98    97   ar
    61    98    96   ar
    62   101    99   ar
    63    97    95   ar
    64   120   118    1
    65   118   115    1
    66   121   122    1
    67   121   116   am
    68   126   128    1
    69   126   125    1
    70   122   125    1
    71     7     5    1
    72     3     2    1
    73    60    61    2
    74   115   116    1
    75   115   114    1
    76   125   127    1
    77    96    99   ar
    78    96    94   ar
    79   116   117    2
    80     2     5    1
    81     2     1    1
    82    95    94   ar
    83    77    76    2
    84   106   105    2
    85     5     6    1
    86    80    81    1
    87    80    79    1
    88    94    93    1
    89   114   105   am
    90   105   104    1
    91   113   112   ar
    92   113   111   ar
    93    76    75    1
    94   112   110   ar
    95    78    79    1
    96    78    75    1
    97    75    74    1
    98   111   109   ar
    99   110   108   ar
   100    93    90    1
   101   103   104    1
   102   103    91   am
   103   104   107    1
   104   109   108   ar
   105   108   107    1
   106    91    90    1
   107    91    92    2
   108    90    89    1
   109    66    67    1
   110    71    72    1
   111    71    73    1
   112    71    70    1
   113    67    70    1
   114    67    68    1
   115    85    84    2
   116    89    84   am
   117    84    83    1
   118    87    86    1
   119    68    69    2
   120    83    86    1
   121    83    82    1
   122    86    88    1
