@<TRIPOS>MOLECULE
tmp/3d7bA02.pdb
 136 133 0 0 0
SMALL
GASTEIGER

@<TRIPOS>ATOM
      1  N         32.2650    6.5870    7.4290 N.3    11  GLN11      -0.1231
      2  CA        33.0140    5.3360    7.4180 C.3    11  GLN11       0.1698
      3  C         32.1060    4.1150    7.4850 C.2    11  GLN11       0.2592
      4  O         32.4630    3.0550    6.9730 O.2    11  GLN11      -0.2718
      5  CB        33.9970    5.2860    8.5900 C.3    11  GLN11       0.0381
      6  CG        35.1690    6.2550    8.4940 C.3    11  GLN11       0.0905
      7  CD        36.3140    5.8750    9.4320 C.2    11  GLN11       0.2608
      8  OE1       37.4910    6.0850    9.1150 O.2    11  GLN11      -0.2717
      9  NE2       35.9770    5.3010   10.5810 N.am   11  GLN11      -0.0878
     10  N         30.9410    4.2490    8.1200 N.am   12  HIS12      -0.1976
     11  CA        30.1970    3.0540    8.5230 C.3    12  HIS12       0.1656
     12  C         28.7130    2.9720    8.1650 C.2    12  HIS12       0.2291
     13  O         28.1040    1.9240    8.3770 O.2    12  HIS12      -0.2864
     14  CB        30.3780    2.7970   10.0270 C.3    12  HIS12       0.0771
     15  CG        31.8010    2.5800   10.4360 C.ar   12  HIS12       0.0820
     16  ND1       32.5550    1.5150    9.9890 N.ar   12  HIS12      -0.2267
     17  CD2       32.6060    3.2890   11.2640 C.ar   12  HIS12       0.1154
     18  CE1       33.7590    1.5720   10.5280 C.ar   12  HIS12       0.1986
     19  NE2       33.8170    2.6410   11.3060 N.ar   12  HIS12      -0.2212
     20  N         46.0860    5.2170    3.0440 N.3    39  ARG39      -0.1245
     21  CA        46.5100    3.8260    2.9450 C.3    39  ARG39       0.1563
     22  C         45.2650    3.0480    2.5370 C.2    39  ARG39       0.2260
     23  O         44.1960    3.6390    2.3810 O.2    39  ARG39      -0.2867
     24  CB        47.0040    3.3130    4.2990 C.3    39  ARG39       0.0307
     25  CG        45.9500    3.3940    5.3920 C.3    39  ARG39       0.0489
     26  CD        46.2980    2.5880    6.6180 C.3    39  ARG39       0.2205
     27  NE        45.1840    2.6360    7.5600 N.pl3  39  ARG39      -0.0865
     28  CZ        45.0730    1.8870    8.6520 C.cat  39  ARG39       0.5346
     29  NH1       44.0060    2.0180    9.4250 N.pl3  39  ARG39       0.1354
     30  NH2       46.0180    1.0070    8.9690 N.pl3  39  ARG39       0.1354
     31  N         42.6070    1.1350    4.1020 N.3    41  LYS41      -0.1231
     32  CA        42.0660    0.7820    5.4150 C.3    41  LYS41       0.1678
     33  C         41.8320   -0.7330    5.4020 C.2    41  LYS41       0.2434
     34  O         41.1250   -1.2360    4.5340 O.2    41  LYS41      -0.2733
     35  CB        40.7780    1.5490    5.7350 C.3    41  LYS41       0.0284
     36  CG        40.2620    1.2810    7.1350 C.3    41  LYS41       0.0035
     37  CD        39.1390    2.2190    7.5380 C.3    41  LYS41       0.0206
     38  CE        38.7260    1.9500    8.9890 C.3    41  LYS41       0.1093
     39  NZ        37.5770    2.7780    9.4350 N.3    41  LYS41      -0.1314
     40  N         42.4720   -1.4660    6.3330 N.am   42  PRO42      -0.2718
     41  CA        42.4870   -2.9300    6.2920 C.3    42  PRO42       0.1535
     42  C         41.1220   -3.6020    6.4870 C.2    42  PRO42       0.2598
     43  O         40.8240   -4.5930    5.8130 O.2    42  PRO42      -0.2715
     44  CB        43.4450   -3.3050    7.4380 C.3    42  PRO42       0.0310
     45  CG        44.2180   -2.0640    7.7220 C.3    42  PRO42       0.0237
     46  CD        43.2590   -0.9490    7.4660 C.3    42  PRO42       0.0939
     47  N         40.3110   -3.0720    7.4030 N.am   43  VAL43      -0.1964
     48  CA        39.0270   -3.6770    7.7640 C.3    43  VAL43       0.1727
     49  C         38.0030   -2.5700    8.0080 C.2    43  VAL43       0.2616
     50  O         38.2800   -1.6190    8.7450 O.2    43  VAL43      -0.2715
     51  CB        39.1490   -4.5420    9.0580 C.3    43  VAL43       0.0290
     52  CG1       37.7800   -5.0080    9.5420 C.3    43  VAL43       0.0023
     53  CG2       40.0850   -5.7400    8.8370 C.3    43  VAL43       0.0023
     54  N         36.8330   -2.6860    7.3810 N.am   44  ASN44      -0.1958
     55  CA        35.7750   -1.6910    7.5740 C.3    44  ASN44       0.1819
     56  C         34.3870   -2.2420    7.3040 C.2    44  ASN44       0.2621
     57  O         34.1790   -2.9380    6.3210 O.2    44  ASN44      -0.2715
     58  CB        36.0080   -0.4780    6.6780 C.3    44  ASN44       0.1195
     59  CG        35.1560    0.7000    7.0750 C.2    44  ASN44       0.2630
     60  OD1       35.4010    1.3330    8.1030 O.2    44  ASN44      -0.2716
     61  ND2       34.1390    1.0000    6.2680 N.am   44  ASN44      -0.0877
     62  N         33.4370   -1.8830    8.1580 N.am   45  THR45      -0.1951
     63  CA        32.0650   -2.3670    8.0470 C.3    45  THR45       0.1897
     64  C         31.0730   -1.2530    7.7170 C.2    45  THR45       0.2313
     65  O         31.1290   -0.1690    8.3030 O.2    45  THR45      -0.2863
     66  CB        31.6440   -3.0520    9.3610 C.3    45  THR45       0.1794
     67  OG1       32.5740   -4.0980    9.6520 O.3    45  THR45      -0.2208
     68  CG2       30.2410   -3.6460    9.2530 C.3    45  THR45       0.0378
     69  N         36.3380   -3.3630   22.8910 N.3    66  LYS66      -0.1245
     70  CA        37.5750   -4.1300   22.7240 C.3    66  LYS66       0.1561
     71  C         38.7820   -3.4710   23.4080 C.2    66  LYS66       0.2260
     72  O         39.6740   -4.1680   23.9010 O.2    66  LYS66      -0.2867
     73  CB        37.8670   -4.3670   21.2400 C.3    66  LYS66       0.0271
     74  CG        36.9790   -5.4230   20.6060 C.3    66  LYS66       0.0035
     75  CD        37.1660   -5.4640   19.1050 C.3    66  LYS66       0.0206
     76  CE        36.4130   -6.6280   18.4880 C.3    66  LYS66       0.1093
     77  NZ        36.3560   -6.5020   16.9990 N.3    66  LYS66      -0.1314
     78  N         30.9200   -6.3740    5.5460 N.3    83  ASP83      -0.1239
     79  CA        32.3100   -6.2790    5.9540 C.3    83  ASP83       0.1674
     80  C         33.1820   -6.1700    4.7230 C.2    83  ASP83       0.2266
     81  O         32.9610   -6.8750    3.7330 O.2    83  ASP83      -0.2867
     82  CB        32.7280   -7.4970    6.7770 C.3    83  ASP83       0.1410
     83  CG        32.0670   -7.5320    8.1400 C.2    83  ASP83       0.3668
     84  OD1       31.9770   -6.4750    8.7960 O.co2  83  ASP83      -0.2456
     85  OD2       31.6440   -8.6260    8.5650 O.co2  83  ASP83      -0.2456
     86  N         37.2010   -6.4460    3.7850 N.3    85  ARG85      -0.1245
     87  CA        38.5180   -6.8540    4.2550 C.3    85  ARG85       0.1563
     88  C         39.5030   -6.8360    3.1000 C.2    85  ARG85       0.2260
     89  O         39.2440   -7.4320    2.0470 O.2    85  ARG85      -0.2867
     90  CB        38.4670   -8.2450    4.8900 C.3    85  ARG85       0.0307
     91  CG        39.7490   -8.6400    5.6140 C.3    85  ARG85       0.0489
     92  CD        39.5440   -9.8570    6.5060 C.3    85  ARG85       0.2205
     93  NE        38.5490   -9.6050    7.5490 N.pl3  85  ARG85      -0.0865
     94  CZ        38.8310   -9.2840    8.8100 C.cat  85  ARG85       0.5346
     95  NH1       37.8430   -9.0720    9.6700 N.pl3  85  ARG85       0.1354
     96  NH2       40.0900   -9.1770    9.2190 N.pl3  85  ARG85       0.1354
     97  N         32.3060    5.1490   16.8380 N.3   119  HIS119     -0.1226
     98  CA        33.2710    4.0860   16.5030 C.3   119  HIS119      0.1752
     99  C         32.4890    2.8090   16.2380 C.2   119  HIS119      0.2596
    100  O         31.5190    2.5100   16.9470 O.2   119  HIS119     -0.2718
    101  CB        34.2040    3.8380   17.6980 C.3   119  HIS119      0.0759
    102  CG        35.0140    5.0140   18.1390 C.ar  119  HIS119      0.0818
    103  ND1       35.6890    5.8440   17.2700 N.ar  119  HIS119     -0.2268
    104  CD2       35.3060    5.4550   19.3860 C.ar  119  HIS119      0.1154
    105  CE1       36.3260    6.7730   17.9640 C.ar  119  HIS119      0.1986
    106  NE2       36.1200    6.5500   19.2500 N.ar  119  HIS119     -0.2212
    107  N         32.9090    2.0450   15.2310 N.am  120  PHE120     -0.1962
    108  CA        32.3490    0.7170   15.0260 C.3   120  PHE120      0.1771
    109  C         33.3080   -0.2800   15.6610 C.2   120  PHE120      0.2620
    110  O         34.4540   -0.3890   15.2290 O.2   120  PHE120     -0.2715
    111  CB        32.1750    0.4190   13.5350 C.3   120  PHE120      0.0574
    112  CG        31.3820   -0.8200   13.2730 C.ar  120  PHE120     -0.0200
    113  CD1       30.0250   -0.7420   12.9770 C.ar  120  PHE120     -0.0042
    114  CD2       31.9850   -2.0750   13.3650 C.ar  120  PHE120     -0.0042
    115  CE1       29.2800   -1.8970   12.7600 C.ar  120  PHE120     -0.0003
    116  CE2       31.2450   -3.2310   13.1490 C.ar  120  PHE120     -0.0003
    117  CZ        29.8920   -3.1370   12.8430 C.ar  120  PHE120     -0.0000
    118  N         32.8490   -1.0080   16.6790 N.am  121  ASP121     -0.1957
    119  CA        33.7550   -1.8800   17.4320 C.3   121  ASP121      0.1840
    120  C         33.8400   -3.3080   16.9040 C.2   121  ASP121      0.2622
    121  O         34.9340   -3.8750   16.7900 O.2   121  ASP121     -0.2715
    122  CB        33.3990   -1.8870   18.9270 C.3   121  ASP121      0.1450
    123  CG        34.6060   -2.1680   19.8120 C.2   121  ASP121      0.3671
    124  OD1       35.6770   -1.5320   19.6080 O.co2 121  ASP121     -0.2456
    125  OD2       34.4880   -3.0310   20.7050 O.co2 121  ASP121     -0.2456
    126  N         32.6840   -3.8910   16.5980 N.am  122  ALA122     -0.1963
    127  CA        32.6100   -5.3110   16.2470 C.3   122  ALA122      0.1728
    128  C         31.2200   -5.6710   15.7800 C.2   122  ALA122      0.2616
    129  O         30.2830   -4.8930   15.9280 O.2   122  ALA122     -0.2715
    130  CB        32.9690   -6.1780   17.4580 C.3   122  ALA122      0.0334
    131  N         31.0970   -6.8650   15.2170 N.am  123  SER123     -0.1950
    132  CA        29.7880   -7.4680   15.0070 C.3   123  SER123      0.1924
    133  C         29.8380   -8.8730   15.5760 C.2   123  SER123      0.2314
    134  O         30.8890   -9.5190   15.5510 O.2   123  SER123     -0.2863
    135  CB        29.4120   -7.4990   13.5300 C.3   123  SER123      0.2116
    136  OG        30.3220   -8.2930   12.7960 O.3   123  SER123     -0.2180
@<TRIPOS>BOND
     1    89    88    2
     2    23    22    2
     3    22    21    1
     4    21    20    1
     5    21    24    1
     6    88    87    1
     7    81    80    2
     8    86    87    1
     9    31    32    1
    10    87    90    1
    11    24    25    1
    12    34    33    2
    13    80    79    1
    14    90    91    1
    15    25    26    1
    16    33    32    1
    17    33    40   am
    18    32    35    1
    19    78    79    1
    20    91    92    1
    21    35    36    1
    22    43    42    2
    23    79    82    1
    24    61    59   am
    25    41    40    1
    26    41    42    1
    27    41    44    1
    28    57    56    2
    29    40    46    1
    30    42    47   am
    31    92    93    1
    32    26    27    1
    33    58    59    1
    34    58    55    1
    35    82    83    1
    36     4     3    2
    37    59    60    2
    38    36    37    1
    39    56    55    1
    40    56    62   am
    41    54    55    1
    42    54    49   am
    43    47    48    1
    44     2     1    1
    45     2     3    1
    46     2     5    1
    47    44    45    1
    48    46    45    1
    49     3    10   am
    50    37    38    1
    51    93    94    2
    52    27    28    2
    53    64    63    1
    54    64    65    2
    55    48    49    1
    56    48    51    1
    57    49    50    2
    58    63    62    1
    59    63    66    1
    60    10    11    1
    61    83    85   ar
    62    83    84   ar
    63    12    13    2
    64    12    11    1
    65     6     5    1
    66     6     7    1
    67    11    14    1
    68    28    30    1
    69    28    29    1
    70    94    96    1
    71    94    95    1
    72    53    51    1
    73    38    39    1
    74    51    52    1
    75     8     7    2
    76    68    66    1
    77    66    67    1
    78     7     9   am
    79    16    15   ar
    80    16    18   ar
    81    14    15    1
    82    15    17   ar
    83    18    19   ar
    84    17    19   ar
    85   115   117   ar
    86   115   113   ar
    87   136   135    1
    88   117   116   ar
    89   113   112   ar
    90   116   114   ar
    91   112   114   ar
    92   112   111    1
    93   135   132    1
    94   111   108    1
    95   132   131    1
    96   132   133    1
    97   108   107    1
    98   108   109    1
    99   131   128   am
   100   110   109    2
   101   107    99   am
   102   134   133    2
   103   109   118   am
   104   128   129    2
   105   128   127    1
   106    99    98    1
   107    99   100    2
   108   127   126    1
   109   127   130    1
   110    98    97    1
   111    98   101    1
   112   126   120   am
   113   118   119    1
   114   121   120    2
   115   120   119    1
   116    77    76    1
   117   103   105   ar
   118   103   102   ar
   119   119   122    1
   120   101   102    1
   121   105   106   ar
   122   102   104   ar
   123    76    75    1
   124   122   123    1
   125    75    74    1
   126   106   104   ar
   127   124   123   ar
   128   123   125   ar
   129    74    73    1
   130    73    70    1
   131    70    69    1
   132    70    71    1
   133    71    72    2
