@<TRIPOS>MOLECULE
tmp/3d7dA06.pdb
 180 170 0 0 0
SMALL
GASTEIGER

@<TRIPOS>ATOM
      1  N         21.7710   50.3590   36.1750 N.3   155  PHE155     -0.1227
      2  CA        20.6450   49.4140   36.1560 C.3   155  PHE155      0.1736
      3  C         20.3390   48.9250   34.7200 C.2   155  PHE155      0.2595
      4  O         20.2770   49.7460   33.7400 O.2   155  PHE155     -0.2718
      5  CB        19.4100   50.1770   36.7030 C.3   155  PHE155      0.0547
      6  CG        18.1120   49.4110   36.5660 C.ar  155  PHE155     -0.0202
      7  CD1       17.9590   48.1500   37.1890 C.ar  155  PHE155     -0.0042
      8  CD2       17.0020   50.0060   35.9000 C.ar  155  PHE155     -0.0042
      9  CE1       16.7560   47.4300   37.1020 C.ar  155  PHE155     -0.0003
     10  CE2       15.7720   49.2630   35.8040 C.ar  155  PHE155     -0.0003
     11  CZ        15.6850   47.9780   36.4180 C.ar  155  PHE155     -0.0000
     12  N         20.1120   47.6100   34.5790 N.am  156  ARG156     -0.1980
     13  CA        19.8310   47.0340   33.2120 C.3   156  ARG156      0.1597
     14  C         18.6380   47.6400   32.4510 C.2   156  ARG156      0.2287
     15  O         18.6220   47.7090   31.1880 O.2   156  ARG156     -0.2864
     16  CB        19.7620   45.5120   33.3280 C.3   156  ARG156      0.0334
     17  CG        18.4700   45.0180   34.0270 C.3   156  ARG156      0.0492
     18  CD        18.5050   43.4870   34.1940 C.3   156  ARG156      0.2205
     19  NE        19.2900   43.0660   35.3740 N.pl3 156  ARG156     -0.0865
     20  CZ        18.8830   43.2640   36.6360 C.cat 156  ARG156      0.5346
     21  NH1       17.7220   43.8640   36.8450 N.pl3 156  ARG156      0.1354
     22  NH2       19.6100   42.8720   37.6640 N.pl3 156  ARG156      0.1354
     23  N         14.7200   42.0700   35.9890 N.3   203  ASN203     -0.1240
     24  CA        13.7730   42.8010   35.1580 C.3   203  ASN203      0.1653
     25  C         14.3980   44.0010   34.4260 C.2   203  ASN203      0.2266
     26  O         15.4630   44.5280   34.8000 O.2   203  ASN203     -0.2867
     27  CB        12.5260   43.2370   35.9560 C.3   203  ASN203      0.1155
     28  CG        12.7520   44.5870   36.6530 C.2   203  ASN203      0.2627
     29  OD1       12.7000   45.6200   36.0150 O.2   203  ASN203     -0.2716
     30  ND2       12.9100   44.5700   37.9940 N.am  203  ASN203     -0.0877
     31  N         20.5850   37.4900   48.0400 N.3   333  ASP333     -0.1239
     32  CA        19.4760   38.4080   47.6670 C.3   333  ASP333      0.1674
     33  C         18.0830   37.7890   47.4710 C.2   333  ASP333      0.2266
     34  O         17.9220   37.0430   46.4950 O.2   333  ASP333     -0.2867
     35  CB        19.9130   39.1470   46.3910 C.3   333  ASP333      0.1410
     36  CG        18.8720   40.1090   45.8520 C.2   333  ASP333      0.3668
     37  OD1       17.9010   40.3840   46.5840 O.co2 333  ASP333     -0.2456
     38  OD2       19.0090   40.5700   44.6900 O.co2 333  ASP333     -0.2456
     39  N         11.5780   41.7190   42.9120 N.3   371  GLU371     -0.1245
     40  CA        12.4620   41.4590   41.7390 C.3   371  GLU371      0.1567
     41  C         11.7910   41.8690   40.4230 C.2   371  GLU371      0.2260
     42  O         12.4700   42.0610   39.3960 O.2   371  GLU371     -0.2867
     43  CB        12.9080   39.9950   41.7120 C.3   371  GLU371      0.0388
     44  CG        13.7840   39.5390   42.8990 C.3   371  GLU371      0.1160
     45  CD        15.2160   40.1790   42.8850 C.2   371  GLU371      0.3649
     46  OE1       15.4920   41.1680   42.1100 O.co2 371  GLU371     -0.2457
     47  OE2       16.0070   39.7470   43.7520 O.co2 371  GLU371     -0.2457
     48  N         10.0200   44.6440   40.0260 N.3   373  GLY373     -0.1210
     49  CA         9.8660   46.1070   39.9720 C.3   373  GLY373      0.1956
     50  C          9.3360   46.7400   41.2550 C.2   373  GLY373      0.2611
     51  O          8.6020   47.7360   41.1770 O.2   373  GLY373     -0.2717
     52  N          9.7090   46.1760   42.3930 N.am  374  LEU374     -0.1979
     53  CA         9.3070   46.8270   43.6790 C.3   374  LEU374      0.1596
     54  C          7.7640   46.7540   43.7880 C.2   374  LEU374      0.2287
     55  O          7.1150   47.6220   44.3900 O.2   374  LEU374     -0.2864
     56  CB         9.8010   48.2790   43.7330 C.3   374  LEU374      0.0297
     57  CG        11.2360   48.5640   43.2160 C.3   374  LEU374      0.0022
     58  CD1       11.5970   50.0560   43.4620 C.3   374  LEU374      0.0001
     59  CD2       12.2140   47.6350   43.9120 C.3   374  LEU374      0.0001
     60  N         17.0230   44.5340   52.4670 N.3   399  ASP399     -0.1225
     61  CA        17.4040   43.5270   51.4670 C.3   399  ASP399      0.1805
     62  C         18.7430   42.9350   51.9050 C.2   399  ASP399      0.2598
     63  O         19.0820   42.9910   53.1080 O.2   399  ASP399     -0.2718
     64  CB        17.4790   44.1310   50.0700 C.3   399  ASP399      0.1424
     65  CG        17.3380   43.0660   48.9420 C.2   399  ASP399      0.3668
     66  OD1       17.3450   41.8780   49.2300 O.co2 399  ASP399     -0.2456
     67  OD2       17.2470   43.4620   47.7620 O.co2 399  ASP399     -0.2456
     68  N         19.5230   42.4200   50.9560 N.am  400  SER400     -0.1952
     69  CA        20.7290   41.6660   51.3030 C.3   400  SER400      0.1924
     70  C         21.5970   42.3310   52.3830 C.2   400  SER400      0.2314
     71  O         21.8960   43.5480   52.3350 O.2   400  SER400     -0.2863
     72  CB        21.5850   41.4960   50.0730 C.3   400  SER400      0.2116
     73  OG        20.8150   41.1490   48.9470 O.3   400  SER400     -0.2180
     74  N         28.2730   49.7040   54.5450 N.3   409  ARG409     -0.1245
     75  CA        27.8230   50.5900   53.4580 C.3   409  ARG409      0.1563
     76  C         26.4580   51.1180   53.9440 C.2   409  ARG409      0.2260
     77  O         25.5780   50.3310   54.2200 O.2   409  ARG409     -0.2867
     78  CB        27.6470   49.8070   52.1230 C.3   409  ARG409      0.0307
     79  CG        27.1580   50.6680   50.9270 C.3   409  ARG409      0.0489
     80  CD        27.1340   49.8590   49.5920 C.3   409  ARG409      0.2205
     81  NE        26.7480   50.6630   48.4240 N.pl3 409  ARG409     -0.0865
     82  CZ        26.7320   50.2190   47.1640 C.cat 409  ARG409      0.5346
     83  NH1       27.1040   48.9600   46.8920 N.pl3 409  ARG409      0.1354
     84  NH2       26.3460   51.0290   46.1710 N.pl3 409  ARG409      0.1354
     85  N         23.3490   54.0960   53.0630 N.3   411  ASP411     -0.1239
     86  CA        22.7650   55.1740   52.2390 C.3   411  ASP411      0.1674
     87  C         21.5050   55.6080   53.0040 C.2   411  ASP411      0.2266
     88  O         20.7180   54.7630   53.3740 O.2   411  ASP411     -0.2867
     89  CB        22.2330   54.6490   50.8900 C.3   411  ASP411      0.1410
     90  CG        23.3090   54.0040   50.0130 C.2   411  ASP411      0.3668
     91  OD1       24.5260   54.0540   50.3400 O.co2 411  ASP411     -0.2456
     92  OD2       22.9150   53.4160   48.9600 O.co2 411  ASP411     -0.2456
     93  N         16.0230   51.0890   42.9750 N.3   464  GLY464     -0.1210
     94  CA        16.3480   49.6780   42.7400 C.3   464  GLY464      0.1956
     95  C         16.0850   48.8390   44.0020 C.2   464  GLY464      0.2611
     96  O         16.5480   47.7010   44.1290 O.2   464  GLY464     -0.2717
     97  N         15.3410   49.3990   44.9710 N.am  465  ASN465     -0.1974
     98  CA        14.9310   48.6110   46.1480 C.3   465  ASN465      0.1688
     99  C         13.6800   49.1900   46.8150 C.2   465  ASN465      0.2292
    100  O         13.2250   50.2710   46.4090 O.2   465  ASN465     -0.2864
    101  CB        16.0770   48.3740   47.1350 C.3   465  ASN465      0.1181
    102  CG        16.0770   46.9450   47.6170 C.2   465  ASN465      0.2629
    103  OD1       15.0950   46.4500   48.2140 O.2   465  ASN465     -0.2716
    104  ND2       17.1830   46.2170   47.2600 N.am  465  ASN465     -0.0877
    105  N         19.2190   52.5390   54.6220 N.3   480  ARG480     -0.1245
    106  CA        19.5940   51.1360   54.3620 C.3   480  ARG480      0.1563
    107  C         21.0600   50.9860   54.8110 C.2   480  ARG480      0.2260
    108  O         21.8210   51.9560   54.8030 O.2   480  ARG480     -0.2867
    109  CB        19.4440   50.8170   52.8750 C.3   480  ARG480      0.0307
    110  CG        20.3710   51.5830   51.9670 C.3   480  ARG480      0.0489
    111  CD        19.9830   51.3950   50.4660 C.3   480  ARG480      0.2205
    112  NE        19.8740   49.9880   50.0490 N.pl3 480  ARG480     -0.0865
    113  CZ        19.8530   49.5960   48.7720 C.cat 480  ARG480      0.5346
    114  NH1       19.6830   48.2950   48.4880 N.pl3 480  ARG480      0.1354
    115  NH2       19.8970   50.5020   47.7870 N.pl3 480  ARG480      0.1354
    116  N         24.3470   47.7520   54.8430 N.3   482  ARG482     -0.1245
    117  CA        24.7500   46.3450   54.6440 C.3   482  ARG482      0.1563
    118  C         26.2580   46.2920   54.7510 C.2   482  ARG482      0.2260
    119  O         26.9140   47.3240   54.7030 O.2   482  ARG482     -0.2867
    120  CB        24.3460   45.8130   53.2450 C.3   482  ARG482      0.0307
    121  CG        24.9230   46.5780   52.0840 C.3   482  ARG482      0.0489
    122  CD        24.5670   45.8320   50.7840 C.3   482  ARG482      0.2205
    123  NE        23.0950   45.8050   50.6100 N.pl3 482  ARG482     -0.0865
    124  CZ        22.4730   45.5970   49.4440 C.cat 482  ARG482      0.5346
    125  NH1       21.1450   45.5390   49.4050 N.pl3 482  ARG482      0.1354
    126  NH2       23.1610   45.3950   48.3320 N.pl3 482  ARG482      0.1354
    127  N         27.7130   49.5220   41.7180 N.3   492  PHE492     -0.1241
    128  CA        26.3310   49.2890   41.2450 C.3   492  PHE492      0.1605
    129  C         26.2320   48.0170   40.3680 C.2   492  PHE492      0.2264
    130  O         25.1850   47.7410   39.7560 O.2   492  PHE492     -0.2867
    131  CB        25.8020   50.5130   40.4520 C.3   492  PHE492      0.0534
    132  CG        25.7130   51.7930   41.2720 C.ar  492  PHE492     -0.0203
    133  CD1       26.3060   52.9600   40.8140 C.ar  492  PHE492     -0.0042
    134  CD2       25.0330   51.8170   42.4940 C.ar  492  PHE492     -0.0042
    135  CE1       26.2170   54.1470   41.5530 C.ar  492  PHE492     -0.0003
    136  CE2       24.9460   53.0120   43.2550 C.ar  492  PHE492     -0.0003
    137  CZ        25.5320   54.1640   42.7790 C.ar  492  PHE492     -0.0000
    138  N         27.6850   41.7990   43.2780 N.3   495  TYR495     -0.1241
    139  CA        28.7140   40.8070   43.5920 C.3   495  TYR495      0.1605
    140  C         28.6810   39.7830   42.4470 C.2   495  TYR495      0.2264
    141  O         27.7110   39.7170   41.7050 O.2   495  TYR495     -0.2867
    142  CB        28.4260   40.1450   44.9390 C.3   495  TYR495      0.0534
    143  CG        26.9690   39.7880   45.1390 C.ar  495  TYR495     -0.0201
    144  CD1       26.4920   38.5060   44.8780 C.ar  495  TYR495     -0.0009
    145  CD2       26.0620   40.7720   45.5610 C.ar  495  TYR495     -0.0009
    146  CE1       25.0960   38.1870   45.0090 C.ar  495  TYR495      0.0417
    147  CE2       24.7190   40.4720   45.7100 C.ar  495  TYR495      0.0417
    148  CZ        24.2420   39.2060   45.4300 C.ar  495  TYR495      0.1957
    149  OH        22.9020   38.9180   45.5670 O.3   495  TYR495     -0.2866
    150  N         21.9960   37.3280   41.3100 N.3   499  HIS499     -0.1241
    151  CA        20.7950   36.9250   40.5060 C.3   499  HIS499      0.1621
    152  C         21.0630   35.6610   39.6570 C.2   499  HIS499      0.2264
    153  O         20.3400   35.3770   38.6990 O.2   499  HIS499     -0.2867
    154  CB        20.3240   38.0710   39.6080 C.3   499  HIS499      0.0745
    155  CG        19.5630   39.1590   40.3500 C.ar  499  HIS499      0.0817
    156  ND1       18.9280   40.1770   39.6760 N.ar  499  HIS499     -0.2268
    157  CD2       19.3750   39.4000   41.6800 C.ar  499  HIS499      0.1154
    158  CE1       18.2900   40.9610   40.5550 C.ar  499  HIS499      0.1986
    159  NE2       18.5380   40.5090   41.7720 N.ar  499  HIS499     -0.2212
    160  N         19.0040   54.0110   37.4500 N.3   643  LYS643     -0.1231
    161  CA        18.0670   53.8980   38.5900 C.3   643  LYS643      0.1693
    162  C         18.7420   53.6250   39.9340 C.2   643  LYS643      0.2592
    163  O         18.2160   54.0250   40.9920 O.2   643  LYS643     -0.2718
    164  CB        17.0430   52.7910   38.2670 C.3   643  LYS643      0.0285
    165  CG        15.8940   52.7100   39.2390 C.3   643  LYS643      0.0035
    166  CD        14.9330   51.6200   38.7960 C.3   643  LYS643      0.0206
    167  CE        13.5760   51.8260   39.5760 C.3   643  LYS643      0.1093
    168  NZ        12.6550   50.6690   39.3110 N.3   643  LYS643     -0.1314
    169  N         19.8910   52.9390   39.9340 N.am  644  TYR644     -0.1976
    170  CA        20.5360   52.5990   41.2170 C.3   644  TYR644      0.1639
    171  C         21.1590   53.7970   41.9110 C.2   644  TYR644      0.2290
    172  O         21.3650   53.7520   43.1100 O.2   644  TYR644     -0.2864
    173  CB        21.6610   51.6110   40.9840 C.3   644  TYR644      0.0560
    174  CG        21.2240   50.2360   40.5160 C.ar  644  TYR644     -0.0198
    175  CD1       20.0740   49.6200   41.0350 C.ar  644  TYR644     -0.0009
    176  CD2       22.0420   49.4820   39.6330 C.ar  644  TYR644     -0.0009
    177  CE1       19.6840   48.2930   40.6420 C.ar  644  TYR644      0.0417
    178  CE2       21.6580   48.1600   39.2140 C.ar  644  TYR644      0.0417
    179  CZ        20.5020   47.5770   39.7380 C.ar  644  TYR644      0.1957
    180  OH        20.1030   46.3300   39.3420 O.3   644  TYR644     -0.2866
@<TRIPOS>BOND
     1    15    14    2
     2    14    13    1
     3    13    16    1
     4    13    12    1
     5    16    17    1
     6     4     3    2
     7    17    18    1
     8    18    19    1
     9    25    26    2
    10    25    24    1
    11    12     3   am
    12     3     2    1
    13    24    27    1
    14    24    23    1
    15    19    20    2
    16    10     8   ar
    17    10    11   ar
    18     8     6   ar
    19    27    28    1
    20    29    28    2
    21     2     1    1
    22     2     5    1
    23    11     9   ar
    24     6     5    1
    25     6     7   ar
    26    20    21    1
    27    20    22    1
    28    28    30   am
    29     9     7   ar
    30   160   161    1
    31   164   161    1
    32   164   165    1
    33   161   162    1
    34   153   152    2
    35   166   165    1
    36   166   167    1
    37   178   176   ar
    38   178   179   ar
    39   168   167    1
    40   180   179    1
    41    42    41    2
    42   154   155    1
    43   154   151    1
    44   176   174   ar
    45   152   151    1
    46   156   155   ar
    47   156   158   ar
    48   179   177   ar
    49   130   129    2
    50   169   162   am
    51   169   170    1
    52   162   163    2
    53    49    48    1
    54    49    50    1
    55   155   157   ar
    56   129   128    1
    57    41    40    1
    58   131   128    1
    59   131   132    1
    60   151   150    1
    61   174   173    1
    62   174   175   ar
    63   158   159   ar
    64   177   175   ar
    65   133   132   ar
    66   133   135   ar
    67   173   170    1
    68    51    50    2
    69   170   171    1
    70   128   127    1
    71    50    52   am
    72   132   134   ar
    73   135   137   ar
    74   157   159   ar
    75   141   140    2
    76    43    40    1
    77    43    44    1
    78    40    39    1
    79   171   172    2
    80    46    45   ar
    81    52    53    1
    82   140   139    1
    83   134   136   ar
    84    94    93    1
    85    94    95    1
    86   137   136   ar
    87    45    44    1
    88    45    47   ar
    89    57    58    1
    90    57    56    1
    91    57    59    1
    92   138   139    1
    93   139   142    1
    94    53    56    1
    95    53    54    1
    96    54    55    2
    97    95    96    2
    98    95    97   am
    99    38    36   ar
   100   144   146   ar
   101   144   143   ar
   102   142   143    1
   103    97    98    1
   104   146   148   ar
   105   143   145   ar
   106   148   149    1
   107   148   147   ar
   108   145   147   ar
   109    36    35    1
   110    36    37   ar
   111    98    99    1
   112    98   101    1
   113    84    82    1
   114    35    32    1
   115   100    99    2
   116    34    33    2
   117    83    82    1
   118   101   102    1
   119    82    81    2
   120   104   102   am
   121    33    32    1
   122   102   103    2
   123    32    31    1
   124    67    65   ar
   125   115   113    1
   126   126   124    1
   127    81    80    1
   128   114   113    1
   129   113   112    2
   130    65    66   ar
   131    65    64    1
   132    73    72    1
   133    92    90   ar
   134   125   124    1
   135   124   123    2
   136    80    79    1
   137    90    91   ar
   138    90    89    1
   139   112   111    1
   140    64    61    1
   141    72    69    1
   142   111   110    1
   143   123   122    1
   144   122   121    1
   145    89    86    1
   146    79    78    1
   147    68    69    1
   148    68    62   am
   149    69    70    1
   150    61    62    1
   151    61    60    1
   152    62    63    2
   153   110   109    1
   154   121   120    1
   155    78    75    1
   156    86    87    1
   157    86    85    1
   158    71    70    2
   159   109   106    1
   160    87    88    2
   161   120   117    1
   162    75    76    1
   163    75    74    1
   164    76    77    2
   165   106   105    1
   166   106   107    1
   167   117   118    1
   168   117   116    1
   169   119   118    2
   170   108   107    2
