@<TRIPOS>MOLECULE
tmp/3d7fA06.pdb
 227 218 0 0 0
SMALL
GASTEIGER

@<TRIPOS>ATOM
      1  N         21.6950   50.1510   35.8740 N.3   155  PHE155     -0.1227
      2  CA        20.5600   49.2270   35.8450 C.3   155  PHE155      0.1736
      3  C         20.2520   48.7480   34.4120 C.2   155  PHE155      0.2595
      4  O         20.1820   49.5640   33.4440 O.2   155  PHE155     -0.2718
      5  CB        19.3350   50.0030   36.3650 C.3   155  PHE155      0.0547
      6  CG        18.0330   49.2150   36.2860 C.ar  155  PHE155     -0.0202
      7  CD1       17.8750   47.9660   36.9030 C.ar  155  PHE155     -0.0042
      8  CD2       16.9280   49.8100   35.6290 C.ar  155  PHE155     -0.0042
      9  CE1       16.6130   47.2830   36.7950 C.ar  155  PHE155     -0.0003
     10  CE2       15.6870   49.1140   35.5410 C.ar  155  PHE155     -0.0003
     11  CZ        15.5550   47.8800   36.0900 C.ar  155  PHE155     -0.0000
     12  N         19.9720   47.4320   34.3030 N.am  156  ARG156     -0.1980
     13  CA        19.7800   46.8740   32.9390 C.3   156  ARG156      0.1597
     14  C         18.5700   47.4750   32.1700 C.2   156  ARG156      0.2287
     15  O         18.5380   47.5450   30.9270 O.2   156  ARG156     -0.2864
     16  CB        19.7050   45.3500   33.0070 C.3   156  ARG156      0.0334
     17  CG        18.3750   44.8510   33.6690 C.3   156  ARG156      0.0492
     18  CD        18.3860   43.3030   33.8590 C.3   156  ARG156      0.2205
     19  NE        19.1510   42.9140   35.0430 N.pl3 156  ARG156     -0.0865
     20  CZ        18.7510   43.1130   36.3070 C.cat 156  ARG156      0.5346
     21  NH1       17.5770   43.7550   36.5010 N.pl3 156  ARG156      0.1354
     22  NH2       19.4830   42.7140   37.3470 N.pl3 156  ARG156      0.1354
     23  N         16.9330   39.1380   35.5240 N.3   202  GLY202     -0.1210
     24  CA        16.4950   40.4750   36.0370 C.3   202  GLY202      0.1956
     25  C         15.5090   41.1230   35.1200 C.2   202  GLY202      0.2611
     26  O         15.5470   40.9590   33.8750 O.2   202  GLY202     -0.2717
     27  N         14.6180   41.8980   35.7040 N.am  203  ASN203     -0.1974
     28  CA        13.6480   42.5830   34.8740 C.3   203  ASN203      0.1688
     29  C         14.2740   43.7710   34.1490 C.2   203  ASN203      0.2292
     30  O         15.3320   44.3080   34.5400 O.2   203  ASN203     -0.2864
     31  CB        12.4070   43.0560   35.7060 C.3   203  ASN203      0.1181
     32  CG        12.6520   44.4010   36.4160 C.2   203  ASN203      0.2629
     33  OD1       12.6340   45.4370   35.7630 O.2   203  ASN203     -0.2716
     34  ND2       12.7730   44.3930   37.7520 N.am  203  ASN203     -0.0877
     35  N          9.8520   51.5660   34.9420 N.3   207  LEU207     -0.1245
     36  CA         8.5920   51.9400   35.6010 C.3   207  LEU207      0.1561
     37  C          8.6070   53.3430   36.1890 C.2   207  LEU207      0.2260
     38  O          7.5430   53.9300   36.4060 O.2   207  LEU207     -0.2867
     39  CB         8.3170   50.9810   36.7760 C.3   207  LEU207      0.0270
     40  CG         8.0460   49.5450   36.4090 C.3   207  LEU207      0.0019
     41  CD1        7.9370   48.7030   37.7350 C.3   207  LEU207      0.0001
     42  CD2        6.6780   49.5540   35.6850 C.3   207  LEU207      0.0001
     43  N         20.4810   37.4240   47.7310 N.3   333  ASP333     -0.1239
     44  CA        19.3730   38.3290   47.3650 C.3   333  ASP333      0.1674
     45  C         17.9910   37.6650   47.1820 C.2   333  ASP333      0.2266
     46  O         17.8590   36.9040   46.2210 O.2   333  ASP333     -0.2867
     47  CB        19.8130   39.0540   46.0730 C.3   333  ASP333      0.1410
     48  CG        18.7790   40.0110   45.4970 C.2   333  ASP333      0.3668
     49  OD1       17.8020   40.2490   46.2470 O.co2 333  ASP333     -0.2456
     50  OD2       18.9550   40.4930   44.3440 O.co2 333  ASP333     -0.2456
     51  N          9.4720   41.9330   44.4140 N.3   370  GLU370     -0.1231
     52  CA        10.4380   43.0350   44.3070 C.3   370  GLU370      0.1699
     53  C         11.2060   42.8470   42.9930 C.2   370  GLU370      0.2592
     54  O         11.5260   43.8300   42.2970 O.2   370  GLU370     -0.2718
     55  CB        11.3690   43.0450   45.5370 C.3   370  GLU370      0.0402
     56  CG        12.4080   44.2090   45.5490 C.3   370  GLU370      0.1161
     57  CD        13.6370   43.9910   44.6850 C.2   370  GLU370      0.3649
     58  OE1       13.8700   42.8700   44.1490 O.co2 370  GLU370     -0.2457
     59  OE2       14.4310   44.9770   44.5730 O.co2 370  GLU370     -0.2457
     60  N         11.4830   41.5650   42.6710 N.am  371  GLU371     -0.1979
     61  CA        12.3250   41.3330   41.5070 C.3   371  GLU371      0.1602
     62  C         11.6780   41.7130   40.1940 C.2   371  GLU371      0.2287
     63  O         12.3550   41.8800   39.1600 O.2   371  GLU371     -0.2864
     64  CB        12.8080   39.8790   41.4620 C.3   371  GLU371      0.0415
     65  CG        13.7490   39.4230   42.5950 C.3   371  GLU371      0.1163
     66  CD        15.1650   40.0800   42.6240 C.2   371  GLU371      0.3649
     67  OE1       15.4200   41.0340   41.8910 O.co2 371  GLU371     -0.2457
     68  OE2       15.9290   39.6490   43.4730 O.co2 371  GLU371     -0.2457
     69  N          9.9280   44.5030   39.7740 N.3   373  GLY373     -0.1210
     70  CA         9.7190   45.9400   39.6960 C.3   373  GLY373      0.1956
     71  C          9.2270   46.5710   40.9850 C.2   373  GLY373      0.2611
     72  O          8.5090   47.5890   40.8980 O.2   373  GLY373     -0.2717
     73  N          9.6010   46.0180   42.1330 N.am  374  LEU374     -0.1979
     74  CA         9.2100   46.6400   43.4130 C.3   374  LEU374      0.1596
     75  C          7.6710   46.6040   43.5330 C.2   374  LEU374      0.2287
     76  O          7.0490   47.4740   44.1630 O.2   374  LEU374     -0.2864
     77  CB         9.7510   48.0950   43.5550 C.3   374  LEU374      0.0297
     78  CG        11.1410   48.3900   42.9670 C.3   374  LEU374      0.0022
     79  CD1       11.5030   49.8580   43.2330 C.3   374  LEU374      0.0001
     80  CD2       12.1380   47.5080   43.6780 C.3   374  LEU374      0.0001
     81  N         17.0060   44.3270   52.2000 N.3   399  ASP399     -0.1225
     82  CA        17.3430   43.3330   51.2050 C.3   399  ASP399      0.1805
     83  C         18.7340   42.7820   51.6250 C.2   399  ASP399      0.2598
     84  O         19.1040   42.8470   52.8190 O.2   399  ASP399     -0.2718
     85  CB        17.3780   43.9510   49.8270 C.3   399  ASP399      0.1424
     86  CG        17.2320   42.9200   48.6740 C.2   399  ASP399      0.3668
     87  OD1       17.2570   41.7230   48.9600 O.co2 399  ASP399     -0.2456
     88  OD2       17.1440   43.2900   47.4970 O.co2 399  ASP399     -0.2456
     89  N         19.4860   42.2740   50.6390 N.am  400  SER400     -0.1952
     90  CA        20.7770   41.5640   50.9000 C.3   400  SER400      0.1924
     91  C         21.5690   42.2110   52.0430 C.2   400  SER400      0.2314
     92  O         21.8160   43.4250   52.0610 O.2   400  SER400     -0.2863
     93  CB        21.5680   41.6110   49.6050 C.3   400  SER400      0.2116
     94  OG        20.7920   41.0380   48.6010 O.3   400  SER400     -0.2180
     95  N         27.2310   42.0120   50.4770 N.3   403  GLU403     -0.1245
     96  CA        27.6630   41.9110   49.0780 C.3   403  GLU403      0.1567
     97  C         29.1890   41.8080   49.0660 C.2   403  GLU403      0.2260
     98  O         29.8130   41.9230   48.0210 O.2   403  GLU403     -0.2867
     99  CB        27.1590   43.0890   48.2420 C.3   403  GLU403      0.0388
    100  CG        27.7010   44.4580   48.7130 C.3   403  GLU403      0.1160
    101  CD        27.0580   45.6630   47.9880 C.2   403  GLU403      0.3649
    102  OE1       26.0890   45.4750   47.2220 O.co2 403  GLU403     -0.2457
    103  OE2       27.5410   46.8050   48.2000 O.co2 403  GLU403     -0.2457
    104  N         28.2810   49.5370   54.4630 N.3   409  ARG409     -0.1245
    105  CA        27.7780   50.4360   53.4410 C.3   409  ARG409      0.1563
    106  C         26.4380   50.9620   53.9910 C.2   409  ARG409      0.2260
    107  O         25.5780   50.1900   54.3780 O.2   409  ARG409     -0.2867
    108  CB        27.5120   49.6810   52.1090 C.3   409  ARG409      0.0307
    109  CG        26.9490   50.5910   51.0320 C.3   409  ARG409      0.0489
    110  CD        26.6390   49.8310   49.7870 C.3   409  ARG409      0.2205
    111  NE        25.4920   50.4510   49.1100 N.pl3 409  ARG409     -0.0865
    112  CZ        24.9970   49.9980   47.9620 C.cat 409  ARG409      0.5346
    113  NH1       23.9650   50.6150   47.3870 N.pl3 409  ARG409      0.1354
    114  NH2       25.5590   48.9280   47.3830 N.pl3 409  ARG409      0.1354
    115  N         17.8150   53.9080   43.7050 N.3   463  SER463     -0.1202
    116  CA        16.5840   53.1280   43.6630 C.3   463  SER463      0.2020
    117  C         16.9350   51.7060   43.2590 C.2   463  SER463      0.2619
    118  O         18.0980   51.2670   43.4560 O.2   463  SER463     -0.2717
    119  CB        15.5780   53.7480   42.7190 C.3   463  SER463      0.2103
    120  OG        14.3680   53.0360   42.8340 O.3   463  SER463     -0.2182
    121  N         15.9650   50.9460   42.7550 N.am  464  GLY464     -0.1942
    122  CA        16.1920   49.5130   42.4980 C.3   464  GLY464      0.2014
    123  C         15.9900   48.6750   43.7610 C.2   464  GLY464      0.2638
    124  O         16.4270   47.5280   43.8520 O.2   464  GLY464     -0.2714
    125  N         15.2670   49.2240   44.7580 N.am  465  ASN465     -0.1972
    126  CA        14.8320   48.4460   45.9040 C.3   465  ASN465      0.1688
    127  C         13.5930   49.0260   46.5600 C.2   465  ASN465      0.2292
    128  O         13.1430   50.1030   46.1230 O.2   465  ASN465     -0.2864
    129  CB        15.9650   48.2070   46.8990 C.3   465  ASN465      0.1181
    130  CG        15.9810   46.7870   47.3580 C.2   465  ASN465      0.2629
    131  OD1       15.0390   46.2980   47.9770 O.2   465  ASN465     -0.2716
    132  ND2       17.0690   46.0630   46.9710 N.am  465  ASN465     -0.0877
    133  N         19.1650   52.3680   54.3360 N.3   480  ARG480     -0.1245
    134  CA        19.5150   50.9430   54.1220 C.3   480  ARG480      0.1563
    135  C         20.9720   50.7710   54.5670 C.2   480  ARG480      0.2260
    136  O         21.7330   51.7380   54.5380 O.2   480  ARG480     -0.2867
    137  CB        19.4010   50.5870   52.6140 C.3   480  ARG480      0.0307
    138  CG        20.3650   51.2980   51.6900 C.3   480  ARG480      0.0489
    139  CD        19.9730   51.1360   50.2130 C.3   480  ARG480      0.2205
    140  NE        19.8190   49.7190   49.7920 N.pl3 480  ARG480     -0.0865
    141  CZ        19.8100   49.3260   48.5210 C.cat 480  ARG480      0.5346
    142  NH1       19.6090   48.0230   48.2360 N.pl3 480  ARG480      0.1354
    143  NH2       19.8990   50.2090   47.5370 N.pl3 480  ARG480      0.1354
    144  N         24.2900   47.5360   54.6680 N.3   482  ARG482     -0.1245
    145  CA        24.7200   46.1390   54.4470 C.3   482  ARG482      0.1563
    146  C         26.2090   46.1230   54.5320 C.2   482  ARG482      0.2260
    147  O         26.8420   47.1500   54.4670 O.2   482  ARG482     -0.2867
    148  CB        24.3230   45.6120   53.0460 C.3   482  ARG482      0.0307
    149  CG        24.7830   46.4290   51.8600 C.3   482  ARG482      0.0489
    150  CD        24.5560   45.6830   50.5300 C.3   482  ARG482      0.2205
    151  NE        23.0980   45.5220   50.3340 N.pl3 482  ARG482     -0.0865
    152  CZ        22.4970   45.3950   49.1460 C.cat 482  ARG482      0.5346
    153  NH1       21.1640   45.2350   49.0890 N.pl3 482  ARG482      0.1354
    154  NH2       23.1860   45.4180   48.0260 N.pl3 482  ARG482      0.1354
    155  N         35.5980   48.5550   47.2160 N.3   487  TRP487     -0.1241
    156  CA        35.3230   49.0370   45.8570 C.3   487  TRP487      0.1605
    157  C         36.6000   49.5710   45.1900 C.2   487  TRP487      0.2264
    158  O         36.5420   50.1960   44.1250 O.2   487  TRP487     -0.2867
    159  CB        34.2040   50.0950   45.8700 C.3   487  TRP487      0.0550
    160  CG        32.8420   49.5500   46.2950 C.ar  487  TRP487      0.0003
    161  CD1       32.5360   48.9360   47.4850 C.ar  487  TRP487      0.0946
    162  CD2       31.6180   49.5760   45.5360 C.ar  487  TRP487      0.0152
    163  NE1       31.2100   48.5790   47.5120 N.ar  487  TRP487     -0.2442
    164  CE2       30.6180   48.9540   46.3340 C.ar  487  TRP487      0.0810
    165  CE3       31.2650   50.0640   44.2590 C.ar  487  TRP487      0.0012
    166  CZ2       29.2810   48.7970   45.8960 C.ar  487  TRP487      0.0191
    167  CZ3       29.9240   49.9100   43.8190 C.ar  487  TRP487      0.0001
    168  CH2       28.9550   49.2800   44.6470 C.ar  487  TRP487      0.0015
    169  N         28.6110   44.9820   41.4310 N.3   491  GLY491     -0.1210
    170  CA        27.9110   44.3850   42.6150 C.3   491  GLY491      0.1956
    171  C         28.6670   43.1860   43.1800 C.2   491  GLY491      0.2611
    172  O         29.8410   43.3290   43.5520 O.2   491  GLY491     -0.2717
    173  N         28.0250   42.0080   43.2560 N.am  492  TYR492     -0.1976
    174  CA        28.7710   40.7630   43.5810 C.3   492  TYR492      0.1639
    175  C         28.6050   39.8030   42.3910 C.2   492  TYR492      0.2290
    176  O         27.5920   39.8290   41.6660 O.2   492  TYR492     -0.2864
    177  CB        28.3360   40.1350   44.8950 C.3   492  TYR492      0.0560
    178  CG        26.8580   39.8300   44.9690 C.ar  492  TYR492     -0.0198
    179  CD1       26.3690   38.5470   44.7700 C.ar  492  TYR492     -0.0009
    180  CD2       25.9560   40.8560   45.2720 C.ar  492  TYR492     -0.0009
    181  CE1       24.9780   38.2640   44.8150 C.ar  492  TYR492      0.0417
    182  CE2       24.5950   40.5820   45.3410 C.ar  492  TYR492      0.0417
    183  CZ        24.1300   39.3180   45.1070 C.ar  492  TYR492      0.1957
    184  OH        22.7820   39.0290   45.1660 O.3   492  TYR492     -0.2866
    185  N         25.4010   37.5270   41.5540 N.3   495  TYR495     -0.1227
    186  CA        24.0930   38.2370   41.5120 C.3   495  TYR495      0.1736
    187  C         23.0880   37.6720   40.5190 C.2   495  TYR495      0.2595
    188  O         23.3150   37.6810   39.2790 O.2   495  TYR495     -0.2718
    189  CB        24.4020   39.7270   41.2510 C.3   495  TYR495      0.0548
    190  CG        23.2060   40.6710   41.0640 C.ar  495  TYR495     -0.0200
    191  CD1       22.3380   40.9390   42.1280 C.ar  495  TYR495     -0.0009
    192  CD2       22.9820   41.2880   39.8290 C.ar  495  TYR495     -0.0009
    193  CE1       21.2450   41.8140   41.9090 C.ar  495  TYR495      0.0417
    194  CE2       21.9390   42.1750   39.6230 C.ar  495  TYR495      0.0417
    195  CZ        21.0800   42.3940   40.6690 C.ar  495  TYR495      0.1957
    196  OH        20.0420   43.2470   40.3660 O.3   495  TYR495     -0.2866
    197  N         21.9150   37.2710   41.0280 N.am  496  HIS496     -0.1975
    198  CA        20.7350   36.8280   40.2180 C.3   496  HIS496      0.1656
    199  C         20.9930   35.5790   39.3740 C.2   496  HIS496      0.2291
    200  O         20.2720   35.3060   38.4240 O.2   496  HIS496     -0.2864
    201  CB        20.2360   37.9720   39.3360 C.3   496  HIS496      0.0771
    202  CG        19.4800   39.0460   40.0900 C.ar  496  HIS496      0.0820
    203  ND1       18.8020   40.0480   39.4280 N.ar  496  HIS496     -0.2267
    204  CD2       19.2920   39.2620   41.4270 C.ar  496  HIS496      0.1154
    205  CE1       18.2030   40.8330   40.3250 C.ar  496  HIS496      0.1986
    206  NE2       18.4300   40.3490   41.5330 N.ar  496  HIS496     -0.2212
    207  N         18.9270   53.7270   37.1900 N.3   640  LYS640     -0.1231
    208  CA        18.0180   53.6570   38.3220 C.3   640  LYS640      0.1693
    209  C         18.6770   53.3960   39.6640 C.2   640  LYS640      0.2592
    210  O         18.1510   53.7680   40.7320 O.2   640  LYS640     -0.2718
    211  CB        16.9700   52.5590   38.0010 C.3   640  LYS640      0.0285
    212  CG        15.8500   52.4740   39.0470 C.3   640  LYS640      0.0035
    213  CD        14.8490   51.4460   38.4990 C.3   640  LYS640      0.0206
    214  CE        13.5060   51.6380   39.2830 C.3   640  LYS640      0.1093
    215  NZ        12.5450   50.5330   38.9660 N.3   640  LYS640     -0.1314
    216  N         19.8320   52.7150   39.6550 N.am  641  TYR641     -0.1976
    217  CA        20.4530   52.3550   40.9400 C.3   641  TYR641      0.1639
    218  C         21.0760   53.5660   41.6320 C.2   641  TYR641      0.2290
    219  O         21.2890   53.5260   42.8330 O.2   641  TYR641     -0.2864
    220  CB        21.5800   51.3240   40.7460 C.3   641  TYR641      0.0560
    221  CG        21.1190   49.9390   40.3030 C.ar  641  TYR641     -0.0198
    222  CD1       19.9240   49.3610   40.7960 C.ar  641  TYR641     -0.0009
    223  CD2       21.9020   49.1870   39.3970 C.ar  641  TYR641     -0.0009
    224  CE1       19.5080   48.0810   40.3770 C.ar  641  TYR641      0.0417
    225  CE2       21.4970   47.8800   38.9940 C.ar  641  TYR641      0.0417
    226  CZ        20.3110   47.3520   39.4920 C.ar  641  TYR641      0.1957
    227  OH        19.9670   46.0950   39.0480 O.3   641  TYR641     -0.2866
@<TRIPOS>BOND
     1    15    14    2
     2    14    13    1
     3    13    16    1
     4    13    12    1
     5    16    17    1
     6     4     3    2
     7    17    18    1
     8    18    19    1
     9    26    25    2
    10    29    30    2
    11    29    28    1
    12    12     3   am
    13     3     2    1
    14    28    27    1
    15    28    31    1
    16    35    36    1
    17    19    20    2
    18    25    27   am
    19    25    24    1
    20    23    24    1
    21    10     8   ar
    22    10    11   ar
    23    36    37    1
    24    36    39    1
    25     8     6   ar
    26    42    40    1
    27    31    32    1
    28    33    32    2
    29     2     1    1
    30     2     5    1
    31    11     9   ar
    32    37    38    2
    33     6     5    1
    34     6     7   ar
    35    20    21    1
    36    20    22    1
    37    40    39    1
    38    40    41    1
    39    32    34   am
    40     9     7   ar
    41   207   208    1
    42   211   208    1
    43   211   212    1
    44   208   209    1
    45   200   199    2
    46   213   212    1
    47   213   214    1
    48   215   214    1
    49   225   223   ar
    50   225   226   ar
    51   227   226    1
    52    63    62    2
    53   188   187    2
    54   201   202    1
    55   201   198    1
    56   199   198    1
    57   223   221   ar
    58   203   202   ar
    59   203   205   ar
    60   226   224   ar
    61   194   192   ar
    62   194   195   ar
    63   216   209   am
    64   216   217    1
    65   209   210    2
    66    70    69    1
    67    70    71    1
    68   192   190   ar
    69   202   204   ar
    70    62    61    1
    71   198   197    1
    72   221   220    1
    73   221   222   ar
    74   205   206   ar
    75   196   195    1
    76   224   222   ar
    77   187   197   am
    78   187   186    1
    79   195   193   ar
    80   220   217    1
    81    72    71    2
    82   217   218    1
    83    71    73   am
    84   190   189    1
    85   190   191   ar
    86   189   186    1
    87   204   206   ar
    88   169   170    1
    89    64    61    1
    90    64    65    1
    91    61    60    1
    92   186   185    1
    93   218   219    2
    94   176   175    2
    95    67    66   ar
    96   193   191   ar
    97    73    74    1
    98    54    53    2
    99   175   174    1
   100   122   121    1
   101   122   123    1
   102    65    66    1
   103   170   171    1
   104    66    68   ar
   105    60    53   am
   106   119   120    1
   107   119   116    1
   108   121   117   am
   109    78    79    1
   110    78    77    1
   111    78    80    1
   112    53    52    1
   113   171   173   am
   114   171   172    2
   115   173   174    1
   116   117   118    2
   117   117   116    1
   118    74    75    1
   119    74    77    1
   120    75    76    2
   121   174   177    1
   122   116   115    1
   123   123   124    2
   124   123   125   am
   125   167   165   ar
   126   167   168   ar
   127   158   157    2
   128    58    57   ar
   129   165   162   ar
   130    52    51    1
   131    52    55    1
   132    50    48   ar
   133    59    57   ar
   134   168   166   ar
   135    57    56    1
   136   125   126    1
   137   179   181   ar
   138   179   178   ar
   139   181   183   ar
   140   177   178    1
   141   178   180   ar
   142   183   184    1
   143   183   182   ar
   144   157   156    1
   145   180   182   ar
   146    48    47    1
   147    48    49   ar
   148   162   160   ar
   149   162   164   ar
   150    55    56    1
   151   156   159    1
   152   156   155    1
   153   159   160    1
   154   166   164   ar
   155   126   127    1
   156   126   129    1
   157    47    44    1
   158   128   127    2
   159    46    45    2
   160   160   161   ar
   161   164   163   ar
   162   129   130    1
   163   132   130   am
   164    45    44    1
   165   102   101   ar
   166   130   131    2
   167    44    43    1
   168   114   112    1
   169   113   112    1
   170   161   163   ar
   171    88    86   ar
   172   143   141    1
   173   112   111    2
   174   101   103   ar
   175   101   100    1
   176    98    97    2
   177   154   152    1
   178   142   141    1
   179    99   100    1
   180    99    96    1
   181   141   140    2
   182    94    93    1
   183    86    87   ar
   184    86    85    1
   185    97    96    1
   186    96    95    1
   187   153   152    1
   188   111   110    1
   189   152   151    2
   190    93    90    1
   191   110   109    1
   192   140   139    1
   193    85    82    1
   194   139   138    1
   195   151   150    1
   196   150   149    1
   197    89    90    1
   198    89    83   am
   199    90    91    1
   200   109   108    1
   201    82    83    1
   202    82    81    1
   203    83    84    2
   204   138   137    1
   205   149   148    1
   206    91    92    2
   207   108   105    1
   208   137   134    1
   209   148   145    1
   210   105   106    1
   211   105   104    1
   212   106   107    2
   213   134   133    1
   214   134   135    1
   215   145   146    1
   216   145   144    1
   217   147   146    2
   218   136   135    2
