@<TRIPOS>MOLECULE
tmp/3d7gA06.pdb
 196 189 0 0 0
SMALL
GASTEIGER

@<TRIPOS>ATOM
      1  N         21.7080   50.0410   36.1310 N.3   155  PHE155     -0.1227
      2  CA        20.5600   49.1200   36.0970 C.3   155  PHE155      0.1736
      3  C         20.2610   48.6440   34.6570 C.2   155  PHE155      0.2595
      4  O         20.1910   49.4630   33.6950 O.2   155  PHE155     -0.2718
      5  CB        19.3210   49.8900   36.6120 C.3   155  PHE155      0.0547
      6  CG        18.0460   49.0990   36.5130 C.ar  155  PHE155     -0.0202
      7  CD1       17.9250   47.8820   37.1800 C.ar  155  PHE155     -0.0042
      8  CD2       16.9190   49.6670   35.8820 C.ar  155  PHE155     -0.0042
      9  CE1       16.7180   47.1100   37.1040 C.ar  155  PHE155     -0.0003
     10  CE2       15.7110   48.8820   35.7900 C.ar  155  PHE155     -0.0003
     11  CZ        15.6440   47.6270   36.4220 C.ar  155  PHE155     -0.0000
     12  N         19.9790   47.3410   34.5210 N.am  156  ARG156     -0.1980
     13  CA        19.7530   46.7590   33.1580 C.3   156  ARG156      0.1597
     14  C         18.5580   47.3510   32.4010 C.2   156  ARG156      0.2287
     15  O         18.5370   47.4060   31.1620 O.2   156  ARG156     -0.2864
     16  CB        19.7000   45.2210   33.2770 C.3   156  ARG156      0.0334
     17  CG        18.4520   44.6970   33.9940 C.3   156  ARG156      0.0492
     18  CD        18.4990   43.1560   34.1760 C.3   156  ARG156      0.2205
     19  NE        19.2660   42.7480   35.3850 N.pl3 156  ARG156     -0.0865
     20  CZ        18.8420   42.9640   36.6370 C.cat 156  ARG156      0.5346
     21  NH1       17.6700   43.6020   36.8360 N.pl3 156  ARG156      0.1354
     22  NH2       19.5740   42.5790   37.6780 N.pl3 156  ARG156      0.1354
     23  N         17.0150   39.0180   35.7820 N.3   202  GLY202     -0.1210
     24  CA        16.5640   40.3320   36.2900 C.3   202  GLY202      0.1956
     25  C         15.5580   40.9730   35.3720 C.2   202  GLY202      0.2611
     26  O         15.5840   40.8400   34.1180 O.2   202  GLY202     -0.2717
     27  N         14.6840   41.7870   35.9610 N.am  203  ASN203     -0.1974
     28  CA        13.7160   42.4670   35.1240 C.3   203  ASN203      0.1688
     29  C         14.3300   43.6470   34.3930 C.2   203  ASN203      0.2292
     30  O         15.3620   44.1710   34.7990 O.2   203  ASN203     -0.2864
     31  CB        12.4890   42.9130   35.9910 C.3   203  ASN203      0.1181
     32  CG        12.7220   44.2670   36.7090 C.2   203  ASN203      0.2629
     33  OD1       12.6340   45.3160   36.0980 O.2   203  ASN203     -0.2716
     34  ND2       12.8940   44.2300   38.0340 N.am  203  ASN203     -0.0877
     35  N         20.5610   37.1990   48.0910 N.3   333  ASP333     -0.1239
     36  CA        19.4850   38.1420   47.7200 C.3   333  ASP333      0.1674
     37  C         18.1070   37.5190   47.5320 C.2   333  ASP333      0.2266
     38  O         17.9310   36.8050   46.5320 O.2   333  ASP333     -0.2867
     39  CB        19.9310   38.8780   46.4460 C.3   333  ASP333      0.1410
     40  CG        18.8650   39.8270   45.8780 C.2   333  ASP333      0.3668
     41  OD1       17.9180   40.1770   46.6270 O.co2 333  ASP333     -0.2456
     42  OD2       19.0370   40.2910   44.7260 O.co2 333  ASP333     -0.2456
     43  N         11.5560   41.4160   42.9550 N.3   371  GLU371     -0.1245
     44  CA        12.4500   41.1490   41.7990 C.3   371  GLU371      0.1567
     45  C         11.7840   41.5420   40.4780 C.2   371  GLU371      0.2260
     46  O         12.4400   41.7630   39.4430 O.2   371  GLU371     -0.2867
     47  CB        12.9080   39.6810   41.7590 C.3   371  GLU371      0.0388
     48  CG        13.8120   39.2230   42.9310 C.3   371  GLU371      0.1160
     49  CD        15.2240   39.8990   42.9250 C.2   371  GLU371      0.3649
     50  OE1       15.5200   40.8630   42.1430 O.co2 371  GLU371     -0.2457
     51  OE2       16.0210   39.4890   43.7770 O.co2 371  GLU371     -0.2457
     52  N         10.0180   44.3520   40.0440 N.3   373  GLY373     -0.1210
     53  CA         9.8430   45.8130   39.9680 C.3   373  GLY373      0.1956
     54  C          9.3170   46.4340   41.2670 C.2   373  GLY373      0.2611
     55  O          8.5430   47.4110   41.1950 O.2   373  GLY373     -0.2717
     56  N          9.7040   45.8750   42.3940 N.am  374  LEU374     -0.1979
     57  CA         9.3090   46.4960   43.7070 C.3   374  LEU374      0.1596
     58  C          7.7650   46.4290   43.8280 C.2   374  LEU374      0.2287
     59  O          7.1300   47.2990   44.4300 O.2   374  LEU374     -0.2864
     60  CB         9.7900   47.9670   43.7740 C.3   374  LEU374      0.0297
     61  CG        11.2310   48.2310   43.2750 C.3   374  LEU374      0.0022
     62  CD1       11.5630   49.7200   43.5150 C.3   374  LEU374      0.0001
     63  CD2       12.2180   47.3180   44.0290 C.3   374  LEU374      0.0001
     64  N         17.0220   44.2080   52.5510 N.3   399  ASP399     -0.1225
     65  CA        17.3940   43.1980   51.5120 C.3   399  ASP399      0.1805
     66  C         18.7580   42.6350   51.9310 C.2   399  ASP399      0.2598
     67  O         19.1060   42.6820   53.1340 O.2   399  ASP399     -0.2718
     68  CB        17.4850   43.8210   50.1350 C.3   399  ASP399      0.1424
     69  CG        17.3450   42.7610   48.9680 C.2   399  ASP399      0.3668
     70  OD1       17.3410   41.5760   49.2750 O.co2 399  ASP399     -0.2456
     71  OD2       17.2540   43.1590   47.7810 O.co2 399  ASP399     -0.2456
     72  N         19.5280   42.1370   50.9610 N.am  400  SER400     -0.1952
     73  CA        20.7700   41.3760   51.2550 C.3   400  SER400      0.1924
     74  C         21.5980   42.0160   52.3850 C.2   400  SER400      0.2314
     75  O         21.9090   43.2210   52.3390 O.2   400  SER400     -0.2863
     76  CB        21.5930   41.3080   50.0060 C.3   400  SER400      0.2116
     77  OG        20.7910   40.8250   48.9710 O.3   400  SER400     -0.2180
     78  N         17.8220   53.7610   44.1060 N.3   463  SER463     -0.1202
     79  CA        16.6170   52.9570   43.9900 C.3   463  SER463      0.2020
     80  C         16.9990   51.5280   43.5700 C.2   463  SER463      0.2619
     81  O         18.1460   51.0910   43.8200 O.2   463  SER463     -0.2717
     82  CB        15.6450   53.6050   43.0240 C.3   463  SER463      0.2103
     83  OG        14.4140   52.8990   43.0280 O.3   463  SER463     -0.2182
     84  N         16.0510   50.7710   43.0130 N.am  464  GLY464     -0.1942
     85  CA        16.3510   49.3360   42.7790 C.3   464  GLY464      0.2014
     86  C         16.1020   48.5050   44.0450 C.2   464  GLY464      0.2638
     87  O         16.5950   47.3990   44.1860 O.2   464  GLY464     -0.2714
     88  N         15.3440   49.0770   45.0040 N.am  465  ASN465     -0.1972
     89  CA        14.9320   48.3090   46.1960 C.3   465  ASN465      0.1688
     90  C         13.6840   48.8660   46.8540 C.2   465  ASN465      0.2292
     91  O         13.1930   49.9270   46.4300 O.2   465  ASN465     -0.2864
     92  CB        16.0820   48.0860   47.1870 C.3   465  ASN465      0.1181
     93  CG        16.0840   46.6370   47.6920 C.2   465  ASN465      0.2629
     94  OD1       15.1110   46.1750   48.3000 O.2   465  ASN465     -0.2716
     95  ND2       17.1250   45.8780   47.2870 N.am  465  ASN465     -0.0877
     96  N         19.1970   52.1890   54.6630 N.3   480  ARG480     -0.1245
     97  CA        19.5400   50.7690   54.4390 C.3   480  ARG480      0.1563
     98  C         21.0030   50.6060   54.8650 C.2   480  ARG480      0.2260
     99  O         21.7800   51.5870   54.8310 O.2   480  ARG480     -0.2867
    100  CB        19.4440   50.4230   52.9400 C.3   480  ARG480      0.0307
    101  CG        20.4520   51.1640   52.0580 C.3   480  ARG480      0.0489
    102  CD        20.0890   50.9860   50.5430 C.3   480  ARG480      0.2205
    103  NE        19.9280   49.5500   50.1350 N.pl3 480  ARG480     -0.0865
    104  CZ        19.9540   49.1360   48.8620 C.cat 480  ARG480      0.5346
    105  NH1       19.7260   47.8500   48.5730 N.pl3 480  ARG480      0.1354
    106  NH2       20.1100   50.0050   47.8650 N.pl3 480  ARG480      0.1354
    107  N         24.3040   47.3910   54.9750 N.3   482  ARG482     -0.1245
    108  CA        24.7060   45.9750   54.7520 C.3   482  ARG482      0.1563
    109  C         26.2130   45.9400   54.8190 C.2   482  ARG482      0.2260
    110  O         26.8640   47.0000   54.8030 O.2   482  ARG482     -0.2867
    111  CB        24.2250   45.4830   53.3670 C.3   482  ARG482      0.0307
    112  CG        24.7290   46.3270   52.2070 C.3   482  ARG482      0.0489
    113  CD        24.5070   45.6230   50.8620 C.3   482  ARG482      0.2205
    114  NE        23.0880   45.3120   50.6970 N.pl3 482  ARG482     -0.0865
    115  CZ        22.4210   45.2870   49.5450 C.cat 482  ARG482      0.5346
    116  NH1       21.1280   44.9700   49.5520 N.pl3 482  ARG482      0.1354
    117  NH2       23.0190   45.5770   48.3910 N.pl3 482  ARG482      0.1354
    118  N         30.2870   49.4380   42.4540 N.3   488  LYS488     -0.1231
    119  CA        29.1160   49.4700   43.3300 C.3   488  LYS488      0.1693
    120  C         27.7770   48.9150   42.7960 C.2   488  LYS488      0.2592
    121  O         27.0400   48.2450   43.5140 O.2   488  LYS488     -0.2718
    122  CB        28.9040   50.9350   43.7590 C.3   488  LYS488      0.0285
    123  CG        27.6610   51.2110   44.5580 C.3   488  LYS488      0.0035
    124  CD        27.8770   52.5160   45.3020 C.3   488  LYS488      0.0206
    125  CE        26.6500   52.9250   46.0800 C.3   488  LYS488      0.1093
    126  NZ        26.8720   54.3190   46.5190 N.3   488  LYS488     -0.1314
    127  N         27.4700   49.2510   41.5540 N.am  489  PHE489     -0.1976
    128  CA        26.1550   48.9950   40.9670 C.3   489  PHE489      0.1639
    129  C         26.0940   47.7150   40.1210 C.2   489  PHE489      0.2290
    130  O         25.0550   47.3530   39.5640 O.2   489  PHE489     -0.2864
    131  CB        25.7900   50.1810   40.0640 C.3   489  PHE489      0.0560
    132  CG        25.6940   51.4980   40.8070 C.ar  489  PHE489     -0.0200
    133  CD1       26.4830   52.6040   40.4370 C.ar  489  PHE489     -0.0042
    134  CD2       24.8490   51.6120   41.8980 C.ar  489  PHE489     -0.0042
    135  CE1       26.3690   53.8220   41.1590 C.ar  489  PHE489     -0.0003
    136  CE2       24.7240   52.8260   42.6020 C.ar  489  PHE489     -0.0003
    137  CZ        25.4930   53.9030   42.2440 C.ar  489  PHE489     -0.0000
    138  N         26.6950   44.4840   41.0940 N.3   491  GLY491     -0.1210
    139  CA        26.3070   43.2650   41.8080 C.3   491  GLY491      0.1956
    140  C         27.5800   42.4500   42.0630 C.2   491  GLY491      0.2611
    141  O         28.6030   42.6160   41.3530 O.2   491  GLY491     -0.2717
    142  N         27.5430   41.6310   43.1040 N.am  492  TYR492     -0.1976
    143  CA        28.6270   40.6980   43.3840 C.3   492  TYR492      0.1639
    144  C         28.6100   39.6210   42.2830 C.2   492  TYR492      0.2290
    145  O         27.6490   39.5200   41.5130 O.2   492  TYR492     -0.2864
    146  CB        28.4240   40.0700   44.7660 C.3   492  TYR492      0.0560
    147  CG        26.9790   39.6670   45.0160 C.ar  492  TYR492     -0.0198
    148  CD1       26.5040   38.3820   44.7330 C.ar  492  TYR492     -0.0009
    149  CD2       26.0660   40.6250   45.5040 C.ar  492  TYR492     -0.0009
    150  CE1       25.1130   38.0320   44.9360 C.ar  492  TYR492      0.0417
    151  CE2       24.7330   40.2980   45.6980 C.ar  492  TYR492      0.0417
    152  CZ        24.2600   39.0260   45.3940 C.ar  492  TYR492      0.1957
    153  OH        22.9410   38.7340   45.5970 O.3   492  TYR492     -0.2866
    154  N         25.5150   37.3300   41.7000 N.3   495  TYR495     -0.1227
    155  CA        24.2140   38.0550   41.7640 C.3   495  TYR495      0.1736
    156  C         23.1540   37.5110   40.7870 C.2   495  TYR495      0.2595
    157  O         23.3760   37.4660   39.5250 O.2   495  TYR495     -0.2718
    158  CB        24.5410   39.5260   41.5610 C.3   495  TYR495      0.0548
    159  CG        23.3800   40.4750   41.3440 C.ar  495  TYR495     -0.0200
    160  CD1       22.4670   40.7040   42.3660 C.ar  495  TYR495     -0.0009
    161  CD2       23.2110   41.1130   40.1170 C.ar  495  TYR495     -0.0009
    162  CE1       21.3750   41.6040   42.1530 C.ar  495  TYR495      0.0417
    163  CE2       22.1450   42.0380   39.8960 C.ar  495  TYR495      0.0417
    164  CZ        21.2420   42.2480   40.9250 C.ar  495  TYR495      0.1957
    165  OH        20.2020   43.1370   40.6960 O.3   495  TYR495     -0.2866
    166  N         21.9790   37.1170   41.3310 N.am  496  HIS496     -0.1975
    167  CA        20.8010   36.6800   40.5370 C.3   496  HIS496      0.1656
    168  C         21.0770   35.4200   39.6490 C.2   496  HIS496      0.2291
    169  O         20.3200   35.1300   38.6910 O.2   496  HIS496     -0.2864
    170  CB        20.2630   37.7790   39.6300 C.3   496  HIS496      0.0771
    171  CG        19.5270   38.8910   40.3720 C.ar  496  HIS496      0.0820
    172  ND1       18.8900   39.9070   39.6940 N.ar  496  HIS496     -0.2267
    173  CD2       19.3070   39.1160   41.6910 C.ar  496  HIS496      0.1154
    174  CE1       18.2820   40.7180   40.5670 C.ar  496  HIS496      0.1986
    175  NE2       18.5000   40.2540   41.7800 N.ar  496  HIS496     -0.2212
    176  N         18.8850   53.6770   37.4130 N.3   640  LYS640     -0.1231
    177  CA        17.9480   53.5930   38.5380 C.3   640  LYS640      0.1693
    178  C         18.6120   53.2950   39.8840 C.2   640  LYS640      0.2592
    179  O         18.1130   53.7050   40.9550 O.2   640  LYS640     -0.2718
    180  CB        16.9110   52.4980   38.1850 C.3   640  LYS640      0.0285
    181  CG        15.7620   52.4140   39.1840 C.3   640  LYS640      0.0035
    182  CD        14.7860   51.3280   38.7360 C.3   640  LYS640      0.0206
    183  CE        13.4830   51.4220   39.5990 C.3   640  LYS640      0.1093
    184  NZ        12.5640   50.2940   39.2280 N.3   640  LYS640     -0.1314
    185  N         19.7390   52.5720   39.8880 N.am  641  TYR641     -0.1976
    186  CA        20.3490   52.2470   41.1920 C.3   641  TYR641      0.1639
    187  C         20.9370   53.4550   41.9050 C.2   641  TYR641      0.2290
    188  O         21.0990   53.4190   43.1030 O.2   641  TYR641     -0.2864
    189  CB        21.5100   51.2870   40.9650 C.3   641  TYR641      0.0560
    190  CG        21.1090   49.9020   40.4940 C.ar  641  TYR641     -0.0198
    191  CD1       20.0020   49.2540   41.0460 C.ar  641  TYR641     -0.0009
    192  CD2       21.9290   49.1890   39.5950 C.ar  641  TYR641     -0.0009
    193  CE1       19.6320   47.9350   40.6400 C.ar  641  TYR641      0.0417
    194  CE2       21.5820   47.8680   39.1600 C.ar  641  TYR641      0.0417
    195  CZ        20.4570   47.2480   39.7190 C.ar  641  TYR641      0.1957
    196  OH        20.0780   45.9940   39.3090 O.3   641  TYR641     -0.2866
@<TRIPOS>BOND
     1    15    14    2
     2    14    13    1
     3    13    16    1
     4    13    12    1
     5    16    17    1
     6     4     3    2
     7    17    18    1
     8    26    25    2
     9    18    19    1
    10    29    30    2
    11    29    28    1
    12    12     3   am
    13     3     2    1
    14    28    27    1
    15    28    31    1
    16    25    27   am
    17    25    24    1
    18    19    20    2
    19    23    24    1
    20    10     8   ar
    21    10    11   ar
    22     8     6   ar
    23    31    32    1
    24     2     1    1
    25     2     5    1
    26    33    32    2
    27    11     9   ar
    28     6     5    1
    29     6     7   ar
    30    20    21    1
    31    20    22    1
    32    32    34   am
    33     9     7   ar
    34   176   177    1
    35   180   177    1
    36   180   181    1
    37   177   178    1
    38   169   168    2
    39   182   181    1
    40   182   183    1
    41   194   192   ar
    42   194   195   ar
    43   184   183    1
    44   196   195    1
    45    46    45    2
    46   157   156    2
    47   130   129    2
    48   192   190   ar
    49   170   171    1
    50   170   167    1
    51   168   167    1
    52   172   171   ar
    53   172   174   ar
    54   195   193   ar
    55   178   185   am
    56   178   179    2
    57   185   186    1
    58   163   161   ar
    59   163   164   ar
    60    53    52    1
    61    53    54    1
    62   131   132    1
    63   131   128    1
    64   161   159   ar
    65   129   128    1
    66   171   173   ar
    67   133   132   ar
    68   133   135   ar
    69    45    44    1
    70   190   189    1
    71   190   191   ar
    72   167   166    1
    73   174   175   ar
    74   193   191   ar
    75   165   164    1
    76   156   166   am
    77   156   155    1
    78   132   134   ar
    79   164   162   ar
    80   189   186    1
    81   128   127    1
    82   138   139    1
    83   135   137   ar
    84   186   187    1
    85    55    54    2
    86    54    56   am
    87   159   158    1
    88   159   160   ar
    89   141   140    2
    90   145   144    2
    91   127   120   am
    92   158   155    1
    93   173   175   ar
    94   154   155    1
    95    47    44    1
    96    47    48    1
    97    44    43    1
    98   139   140    1
    99   134   136   ar
   100   187   188    2
   101   140   142   am
   102    50    49   ar
   103   162   160   ar
   104   137   136   ar
   105   144   143    1
   106    56    57    1
   107   118   119    1
   108    85    84    1
   109    85    86    1
   110   120   119    1
   111   120   121    2
   112    49    48    1
   113    49    51   ar
   114    84    80   am
   115    82    83    1
   116    82    79    1
   117   142   143    1
   118    61    62    1
   119    61    60    1
   120    61    63    1
   121   119   122    1
   122   143   146    1
   123    80    81    2
   124    80    79    1
   125    57    60    1
   126    57    58    1
   127   122   123    1
   128    58    59    2
   129    79    78    1
   130    86    87    2
   131    86    88   am
   132   123   124    1
   133    42    40   ar
   134   148   150   ar
   135   148   147   ar
   136   146   147    1
   137   150   152   ar
   138    88    89    1
   139   147   149   ar
   140   124   125    1
   141   152   153    1
   142   152   151   ar
   143   149   151   ar
   144    40    39    1
   145    40    41   ar
   146   125   126    1
   147    89    90    1
   148    89    92    1
   149    91    90    2
   150    39    36    1
   151    38    37    2
   152    92    93    1
   153    95    93   am
   154    37    36    1
   155    93    94    2
   156    36    35    1
   157    71    69   ar
   158   106   104    1
   159   117   115    1
   160   105   104    1
   161   104   103    2
   162    69    70   ar
   163    69    68    1
   164    77    76    1
   165   115   116    1
   166   115   114    2
   167    76    73    1
   168   103   102    1
   169    68    65    1
   170   102   101    1
   171   114   113    1
   172   113   112    1
   173    72    73    1
   174    72    66   am
   175    73    74    1
   176    65    66    1
   177    65    64    1
   178    66    67    2
   179   101   100    1
   180   112   111    1
   181    75    74    2
   182   100    97    1
   183   111   108    1
   184    97    96    1
   185    97    98    1
   186   108   109    1
   187   108   107    1
   188   110   109    2
   189    99    98    2
