@<TRIPOS>MOLECULE
tmp/3d7kB01.pdb
 159 157 0 0 0
SMALL
GASTEIGER

@<TRIPOS>ATOM
      1  N        -66.2360   15.6100   -9.2330 N.3   392  GLY392     -0.1210
      2  CA       -67.4260   16.4050   -9.0760 C.3   392  GLY392      0.1956
      3  C        -68.8490   15.8700   -8.9660 C.2   392  GLY392      0.2612
      4  O        -69.8000   16.6350   -9.0690 O.2   392  GLY392     -0.2717
      5  N        -69.1530   14.6360   -8.7090 N.am  393  ALA393     -0.1965
      6  CA       -70.6570   14.4630   -8.4220 C.3   393  ALA393      0.1728
      7  C        -71.7120   14.5590   -9.5580 C.2   393  ALA393      0.2616
      8  O        -71.7570   13.6480  -10.4010 O.2   393  ALA393     -0.2715
      9  CB       -71.1220   15.2360   -7.1870 C.3   393  ALA393      0.0334
     10  N        -72.6110   15.5610   -9.5390 N.am  394  LEU394     -0.1963
     11  CA       -73.5220   15.8220  -10.6900 C.3   394  LEU394      0.1728
     12  C        -72.7000   15.7390  -12.0160 C.2   394  LEU394      0.2617
     13  O        -73.0110   14.9800  -12.9430 O.2   394  LEU394     -0.2715
     14  CB       -74.2500   17.1840  -10.5890 C.3   394  LEU394      0.0311
     15  CG       -75.3610   17.4680   -9.5720 C.3   394  LEU394      0.0022
     16  CD1      -75.9160   18.9250   -9.6780 C.3   394  LEU394      0.0001
     17  CD2      -76.5130   16.5040   -9.7220 C.3   394  LEU394      0.0001
     18  N        -71.6200   16.4990  -12.0760 N.am  395  THR395     -0.1937
     19  CA       -70.6710   16.3840  -13.1800 C.3   395  THR395      0.2028
     20  C        -70.4350   14.9170  -13.6620 C.2   395  THR395      0.2642
     21  O        -70.6810   14.6190  -14.8530 O.2   395  THR395     -0.2714
     22  CB       -69.3710   17.0720  -12.8020 C.3   395  THR395      0.1808
     23  OG1      -69.6780   18.4190  -12.4240 O.3   395  THR395     -0.2208
     24  CG2      -68.4080   17.0670  -13.9530 C.3   395  THR395      0.0379
     25  N        -70.0110   14.0080  -12.7700 N.am  396  TYR396     -0.1959
     26  CA       -69.7020   12.6860  -13.2770 C.3   396  TYR396      0.1771
     27  C        -70.9720   11.8730  -13.5000 C.2   396  TYR396      0.2619
     28  O        -70.9590   10.9260  -14.2830 O.2   396  TYR396     -0.2715
     29  CB       -68.6640   11.9200  -12.4210 C.3   396  TYR396      0.0574
     30  CG       -69.2210   11.1790  -11.2300 C.ar  396  TYR396     -0.0198
     31  CD1      -69.7360    9.8640  -11.3590 C.ar  396  TYR396     -0.0009
     32  CD2      -69.2390   11.7870   -9.9610 C.ar  396  TYR396     -0.0009
     33  CE1      -70.2630    9.1660  -10.2590 C.ar  396  TYR396      0.0417
     34  CE2      -69.7670   11.0970   -8.8130 C.ar  396  TYR396      0.0417
     35  CZ       -70.2780    9.7830   -8.9790 C.ar  396  TYR396      0.1957
     36  OH       -70.8080    9.1330   -7.8720 O.3   396  TYR396     -0.2866
     37  N        -72.0630   12.2300  -12.8370 N.am  397  LEU397     -0.1977
     38  CA       -73.2760   11.4850  -13.0540 C.3   397  LEU397      0.1596
     39  C        -73.9090   11.8130  -14.4320 C.2   397  LEU397      0.2287
     40  O        -74.5740   10.9510  -15.0150 O.2   397  LEU397     -0.2864
     41  CB       -74.2880   11.6560  -11.9010 C.3   397  LEU397      0.0297
     42  CG       -73.9530   11.0030  -10.5440 C.3   397  LEU397      0.0022
     43  CD1      -74.6440   11.7200   -9.4070 C.3   397  LEU397      0.0001
     44  CD2      -74.2500    9.5050  -10.4560 C.3   397  LEU397      0.0001
     45  N        -65.0570    5.6960   -1.9340 N.3   417  LEU417     -0.1231
     46  CA       -64.7860    6.7650   -1.0240 C.3   417  LEU417      0.1693
     47  C        -65.6960    7.9330   -1.3690 C.2   417  LEU417      0.2593
     48  O        -66.1490    8.6340   -0.4860 O.2   417  LEU417     -0.2718
     49  CB       -63.3670    7.2450   -1.1520 C.3   417  LEU417      0.0284
     50  CG       -62.5430    7.5360    0.1020 C.3   417  LEU417      0.0019
     51  CD1      -61.7430    8.7590   -0.0280 C.3   417  LEU417      0.0001
     52  CD2      -63.3030    7.5820    1.4220 C.3   417  LEU417      0.0001
     53  N        -65.9190    8.1800   -2.6630 N.am  418  GLY418     -0.1942
     54  CA       -66.7360    9.3010   -3.1360 C.3   418  GLY418      0.2014
     55  C        -66.1540   10.6550   -2.7900 C.2   418  GLY418      0.2640
     56  O        -66.8900   11.6400   -2.6200 O.2   418  GLY418     -0.2714
     57  N        -64.8370   10.7030   -2.6490 N.am  419  SER419     -0.1935
     58  CA       -64.2020   11.8820   -2.1080 C.3   419  SER419      0.2055
     59  C        -64.0470   13.0160   -3.1460 C.2   419  SER419      0.2642
     60  O        -63.2420   12.9370   -4.0540 O.2   419  SER419     -0.2714
     61  CB       -62.8760   11.5170   -1.4700 C.3   419  SER419      0.2130
     62  OG       -62.3470   12.6210   -0.7630 O.3   419  SER419     -0.2179
     63  N        -64.8410   14.0730   -3.0170 N.am  420  MET420     -0.1976
     64  CA       -64.7220   15.1560   -3.9850 C.3   420  MET420      0.1605
     65  C        -63.3110   15.7170   -3.9240 C.2   420  MET420      0.2287
     66  O        -62.7920   15.9910   -2.8080 O.2   420  MET420     -0.2864
     67  CB       -65.7170   16.2760   -3.6480 C.3   420  MET420      0.0413
     68  CG       -67.1620   15.8580   -3.7690 C.3   420  MET420      0.0598
     69  SD       -67.5110   15.2720   -5.4330 S.3   420  MET420     -0.1393
     70  CE       -68.6330   13.8880   -5.2170 C.3   420  MET420      0.0692
     71  N        -66.1520   19.2600  -11.0740 N.3   446  GLY446     -0.1210
     72  CA       -67.1000   20.3120  -10.6670 C.3   446  GLY446      0.1956
     73  C        -66.3420   21.5310  -10.1500 C.2   446  GLY446      0.2612
     74  O        -65.1010   21.4940   -9.9490 O.2   446  GLY446     -0.2717
     75  N        -67.0680   22.6270   -9.9640 N.am  447  ASP447     -0.1959
     76  CA       -66.4700   23.8620   -9.4830 C.3   447  ASP447      0.1840
     77  C        -66.0790   23.7230   -7.9850 C.2   447  ASP447      0.2623
     78  O        -65.0160   24.2100   -7.5380 O.2   447  ASP447     -0.2715
     79  CB       -67.4060   25.0460   -9.7310 C.3   447  ASP447      0.1450
     80  CG       -68.8090   24.8510   -9.1620 C.2   447  ASP447      0.3671
     81  OD1      -69.4870   23.8930   -9.5310 O.co2 447  ASP447     -0.2456
     82  OD2      -69.2850   25.6900   -8.3680 O.co2 447  ASP447     -0.2456
     83  N        -66.9120   23.0020   -7.2300 N.am  448  GLY448     -0.1940
     84  CA       -66.5590   22.5900   -5.8700 C.3   448  GLY448      0.2014
     85  C        -65.3010   21.7540   -5.8250 C.2   448  GLY448      0.2639
     86  O        -64.3670   22.1350   -5.1480 O.2   448  GLY448     -0.2714
     87  N        -65.2460   20.6320   -6.5470 N.am  449  SER449     -0.1949
     88  CA       -64.0710   19.7000   -6.4140 C.3   449  SER449      0.1924
     89  C        -62.7060   20.2680   -6.8500 C.2   449  SER449      0.2314
     90  O        -61.6640   19.9310   -6.2400 O.2   449  SER449     -0.2863
     91  CB       -64.3050   18.3810   -7.1400 C.3   449  SER449      0.2116
     92  OG       -65.6230   17.8750   -6.9270 O.3   449  SER449     -0.2180
     93  N        -60.2840   21.9450   -4.3050 N.3   452  TYR452     -0.1241
     94  CA       -59.4370   21.1100   -3.4050 C.3   452  TYR452      0.1605
     95  C        -57.9710   21.1660   -3.7350 C.2   452  TYR452      0.2264
     96  O        -57.1250   21.0910   -2.8670 O.2   452  TYR452     -0.2867
     97  CB       -59.8770   19.6220   -3.4030 C.3   452  TYR452      0.0534
     98  CG       -61.0490   19.3460   -2.4960 C.ar  452  TYR452     -0.0201
     99  CD1      -62.3330   19.4420   -2.9690 C.ar  452  TYR452     -0.0009
    100  CD2      -60.8520   19.0510   -1.1310 C.ar  452  TYR452     -0.0009
    101  CE1      -63.4380   19.2270   -2.1170 C.ar  452  TYR452      0.0417
    102  CE2      -61.9130   18.8430   -0.3000 C.ar  452  TYR452      0.0417
    103  CZ       -63.1970   18.9290   -0.7810 C.ar  452  TYR452      0.1957
    104  OH       -64.2340   18.6880    0.0750 O.3   452  TYR452     -0.2866
    105  N        -71.4300   24.9990  -12.0230 N.3   474  ASN474     -0.1240
    106  CA       -72.8270   25.2700  -11.7310 C.3   474  ASN474      0.1653
    107  C        -73.0040   26.0870  -10.4570 C.2   474  ASN474      0.2266
    108  O        -74.1090   26.1420   -9.8850 O.2   474  ASN474     -0.2867
    109  CB       -73.6520   23.9810  -11.6680 C.3   474  ASN474      0.1155
    110  CG       -73.1080   22.9440  -10.6500 C.2   474  ASN474      0.2627
    111  OD1      -72.1590   23.1810   -9.9050 O.2   474  ASN474     -0.2716
    112  ND2      -73.7580   21.7870  -10.6160 N.am  474  ASN474     -0.0877
    113  N        -72.2300   25.8540   -7.2780 N.3   476  SER476     -0.1202
    114  CA       -72.6580   25.2120   -6.0600 C.3   476  SER476      0.2020
    115  C        -71.9210   23.8880   -5.8190 C.2   476  SER476      0.2619
    116  O        -71.3500   23.3100   -6.7210 O.2   476  SER476     -0.2717
    117  CB       -74.1680   24.9700   -6.0960 C.3   476  SER476      0.2103
    118  OG       -74.5540   24.5030   -7.3630 O.3   476  SER476     -0.2182
    119  N        -71.9220   23.4270   -4.5830 N.am  477  TRP477     -0.1961
    120  CA       -71.7760   22.0250   -4.3690 C.3   477  TRP477      0.1771
    121  C        -73.1120   21.4480   -4.8070 C.2   477  TRP477      0.2620
    122  O        -74.0390   21.3550   -4.0030 O.2   477  TRP477     -0.2715
    123  CB       -71.5720   21.7710   -2.8960 C.3   477  TRP477      0.0590
    124  CG       -70.3780   22.4660   -2.2890 C.ar  477  TRP477      0.0006
    125  CD1      -70.3960   23.5800   -1.4790 C.ar  477  TRP477      0.0946
    126  CD2      -69.0080   22.0810   -2.4100 C.ar  477  TRP477      0.0152
    127  NE1      -69.1040   23.9000   -1.0950 N.ar  477  TRP477     -0.2442
    128  CE2      -68.2410   22.9900   -1.6370 C.ar  477  TRP477      0.0810
    129  CE3      -68.3500   21.0050   -3.0320 C.ar  477  TRP477      0.0012
    130  CZ2      -66.8580   22.8750   -1.4990 C.ar  477  TRP477      0.0191
    131  CZ3      -66.9800   20.8970   -2.8800 C.ar  477  TRP477      0.0001
    132  CH2      -66.2460   21.8260   -2.1360 C.ar  477  TRP477      0.0015
    133  N        -73.2180   21.1120   -6.0860 N.am  478  GLY478     -0.1940
    134  CA       -74.4750   20.7700   -6.7520 C.3   478  GLY478      0.2014
    135  C        -75.3550   19.6320   -6.2410 C.2   478  GLY478      0.2639
    136  O        -76.5200   19.8800   -5.8440 O.2   478  GLY478     -0.2714
    137  N        -74.8580   18.3850   -6.2730 N.am  479  ALA479     -0.1963
    138  CA       -75.6060   17.2160   -5.7470 C.3   479  ALA479      0.1728
    139  C        -76.1110   17.4090   -4.2940 C.2   479  ALA479      0.2616
    140  O        -77.2960   17.0760   -3.9420 O.2   479  ALA479     -0.2715
    141  CB       -74.7720   15.9830   -5.8530 C.3   479  ALA479      0.0334
    142  N        -75.2460   17.9720   -3.4420 N.am  480  THR480     -0.1951
    143  CA       -75.6610   18.2750   -2.0580 C.3   480  THR480      0.1897
    144  C        -76.7710   19.3380   -2.0250 C.2   480  THR480      0.2313
    145  O        -77.7180   19.2600   -1.1970 O.2   480  THR480     -0.2863
    146  CB       -74.4810   18.7500   -1.2380 C.3   480  THR480      0.1794
    147  OG1      -73.5970   19.5040   -2.0760 O.3   480  THR480     -0.2208
    148  CG2      -73.7230   17.5880   -0.7560 C.3   480  THR480      0.0378
    149  N        -79.8720   17.4350   -2.9360 N.3   483  PHE483     -0.1241
    150  CA       -80.2950   16.7500   -1.7040 C.3   483  PHE483      0.1605
    151  C        -81.1110   17.6730   -0.7690 C.2   483  PHE483      0.2264
    152  O        -82.2130   17.3350   -0.3830 O.2   483  PHE483     -0.2867
    153  CB       -79.1080   16.0850   -0.9520 C.3   483  PHE483      0.0534
    154  CG       -79.5290   15.3020    0.2520 C.ar  483  PHE483     -0.0203
    155  CD1      -79.5500   15.8960    1.5050 C.ar  483  PHE483     -0.0042
    156  CD2      -79.9680   13.9830    0.1190 C.ar  483  PHE483     -0.0042
    157  CE1      -79.9850   15.1880    2.6370 C.ar  483  PHE483     -0.0003
    158  CE2      -80.4250   13.2330    1.2410 C.ar  483  PHE483     -0.0003
    159  CZ       -80.4250   13.8260    2.5060 C.ar  483  PHE483     -0.0000
@<TRIPOS>BOND
     1    40    39    2
     2    21    20    2
     3    39    38    1
     4    28    27    2
     5    24    22    1
     6    20    19    1
     7    20    25   am
     8    27    26    1
     9    27    37   am
    10    26    25    1
    11    26    29    1
    12    19    22    1
    13    19    18    1
    14    38    37    1
    15    38    41    1
    16    13    12    2
    17    22    23    1
    18    29    30    1
    19    18    12   am
    20   105   106    1
    21    12    11    1
    22    41    42    1
    23   106   109    1
    24   106   107    1
    25   109   110    1
    26    31    30   ar
    27    31    33   ar
    28    30    32   ar
    29    71    72    1
    30    11    14    1
    31    11    10    1
    32    72    73    1
    33   110   112   am
    34   110   111    2
    35    14    15    1
    36    42    44    1
    37    42    43    1
    38   107   108    2
    39     8     7    2
    40    33    35   ar
    41    73    75   am
    42    73    74    2
    43    75    76    1
    44    32    34   ar
    45    79    76    1
    46    79    80    1
    47    17    15    1
    48    16    15    1
    49     7    10   am
    50     7     6    1
    51    81    80   ar
    52    76    77    1
    53     1     2    1
    54    80    82   ar
    55     2     3    1
    56     4     3    2
    57    35    34   ar
    58    35    36    1
    59     3     5   am
    60     5     6    1
    61     6     9    1
    62    77    78    2
    63    77    83   am
    64   118   117    1
    65   113   114    1
    66    83    84    1
    67    91    92    1
    68    91    88    1
    69    89    88    1
    70    89    90    2
    71   134   135    1
    72   134   133    1
    73   116   115    2
    74    87    88    1
    75    87    85   am
    76   137   135   am
    77   137   138    1
    78   135   136    2
    79   117   114    1
    80   133   121   am
    81   114   115    1
    82    84    85    1
    83   141   138    1
    84    85    86    2
    85   115   119   am
    86   138   139    1
    87    69    70    1
    88    69    68    1
    89   121   120    1
    90   121   122    2
    91   119   120    1
    92   120   123    1
    93    93    94    1
    94   139   140    2
    95   139   142   am
    96    60    59    2
    97    64    65    1
    98    64    67    1
    99    64    63    1
   100    65    66    2
   101    68    67    1
   102    95    94    1
   103    95    96    2
   104   142   143    1
   105    94    97    1
   106    97    98    1
   107    59    63   am
   108    59    58    1
   109    54    55    1
   110    54    53    1
   111   129   131   ar
   112   129   126   ar
   113    99    98   ar
   114    99   101   ar
   115   149   150    1
   116   123   124    1
   117   131   132   ar
   118    55    57   am
   119    55    56    2
   120    53    47   am
   121    57    58    1
   122    98   100   ar
   123   126   124   ar
   124   126   128   ar
   125   124   125   ar
   126   132   130   ar
   127   101   103   ar
   128    58    61    1
   129   147   146    1
   130   143   144    1
   131   143   146    1
   132   144   145    2
   133    45    46    1
   134   150   153    1
   135   150   151    1
   136   128   130   ar
   137   128   127   ar
   138   125   127   ar
   139    61    62    1
   140    47    46    1
   141    47    48    2
   142   146   148    1
   143    49    46    1
   144    49    50    1
   145   100   102   ar
   146   153   154    1
   147   103   102   ar
   148   103   104    1
   149   151   152    2
   150    51    50    1
   151    50    52    1
   152   156   154   ar
   153   156   158   ar
   154   154   155   ar
   155   158   159   ar
   156   155   157   ar
   157   159   157   ar
