@<TRIPOS>MOLECULE
tmp/3d7kB00.pdb
 100 97 0 0 0
SMALL
GASTEIGER

@<TRIPOS>ATOM
      1  N        -43.2690   15.2200   -2.4540 N.3    24  LEU24      -0.1231
      2  CA       -42.9820   16.5660   -2.0700 C.3    24  LEU24       0.1693
      3  C        -41.9880   16.4310   -0.9440 C.2    24  LEU24       0.2592
      4  O        -42.1450   15.6710   -0.0100 O.2    24  LEU24      -0.2718
      5  CB       -44.2690   17.3850   -1.7680 C.3    24  LEU24       0.0284
      6  CG       -44.4440   18.4900   -0.7040 C.3    24  LEU24       0.0019
      7  CD1      -43.2140   19.3310   -0.2850 C.3    24  LEU24       0.0001
      8  CD2      -45.6140   19.4030   -1.0200 C.3    24  LEU24       0.0001
      9  N        -40.9240   17.1720   -1.1110 N.am   25  HIS25      -0.1962
     10  CA       -39.7140   17.0850   -0.3130 C.3    25  HIS25       0.1787
     11  C        -39.8120   17.3200    1.1880 C.2    25  HIS25       0.2621
     12  O        -40.6290   18.0730    1.6710 O.2    25  HIS25      -0.2715
     13  CB       -38.7440   18.1070   -0.8480 C.3    25  HIS25       0.0785
     14  CG       -37.3950   17.9640   -0.2710 C.ar   25  HIS25       0.0821
     15  ND1      -36.4390   17.1590   -0.8430 N.ar   25  HIS25      -0.2267
     16  CD2      -36.8470   18.4810    0.8570 C.ar   25  HIS25       0.1154
     17  CE1      -35.3370   17.2200   -0.1080 C.ar   25  HIS25       0.1986
     18  NE2      -35.5620   18.0080    0.9320 N.ar   25  HIS25      -0.2212
     19  N        -38.9190   16.6890    1.9180 N.am   26  GLY26      -0.1940
     20  CA       -38.7560   17.0280    3.3070 C.3    26  GLY26       0.2014
     21  C        -37.3650   16.5530    3.6580 C.2    26  GLY26       0.2639
     22  O        -36.8770   15.5780    3.0820 O.2    26  GLY26      -0.2714
     23  N        -36.7240   17.2160    4.6060 N.am   27  ALA27      -0.1963
     24  CA       -35.3990   16.7610    5.0110 C.3    27  ALA27       0.1728
     25  C        -35.4050   15.2430    5.3520 C.2    27  ALA27       0.2616
     26  O        -34.5030   14.5010    4.9800 O.2    27  ALA27      -0.2715
     27  CB       -34.9020   17.5750    6.1870 C.3    27  ALA27       0.0334
     28  N        -36.4370   14.7810    6.0370 N.am   28  HIS28      -0.1973
     29  CA       -36.4160   13.4330    6.5400 C.3    28  HIS28       0.1656
     30  C        -36.2200   12.4180    5.4210 C.2    28  HIS28       0.2291
     31  O        -35.6950   11.3520    5.7030 O.2    28  HIS28      -0.2864
     32  CB       -37.6900   13.1040    7.3480 C.3    28  HIS28       0.0771
     33  CG       -37.8070   13.8450    8.6510 C.ar   28  HIS28       0.0820
     34  ND1      -38.0460   15.1990    8.7180 N.ar   28  HIS28      -0.2267
     35  CD2      -37.7570   13.4080    9.9310 C.ar   28  HIS28       0.1154
     36  CE1      -38.1130   15.5690    9.9850 C.ar   28  HIS28       0.1986
     37  NE2      -37.9260   14.5010   10.7400 N.ar   28  HIS28      -0.2212
     38  N        -49.1570   17.0230   -0.5410 N.3    49  GLU49      -0.1245
     39  CA       -49.0620   15.5670   -0.4790 C.3    49  GLU49       0.1567
     40  C        -50.3160   14.7980   -0.9360 C.2    49  GLU49       0.2260
     41  O        -50.2070   13.7330   -1.5700 O.2    49  GLU49      -0.2867
     42  CB       -48.6380   15.1080    0.8870 C.3    49  GLU49       0.0388
     43  CG       -47.2390   15.5480    1.1950 C.3    49  GLU49       0.1160
     44  CD       -47.1600   16.9110    1.8860 C.2    49  GLU49       0.3649
     45  OE1      -48.1460   17.6910    1.8640 O.co2  49  GLU49      -0.2457
     46  OE2      -46.0960   17.2060    2.4450 O.co2  49  GLU49      -0.2457
     47  N        -42.8580   12.9740    3.4810 N.3    72  THR72      -0.1218
     48  CA       -42.1090   13.1720    4.7270 C.3    72  THR72       0.1862
     49  C        -42.8900   12.9460    6.1000 C.2    72  THR72       0.2287
     50  O        -44.1500   12.8180    6.1480 O.2    72  THR72      -0.2866
     51  CB       -41.4540   14.5500    4.7270 C.3    72  THR72       0.1770
     52  OG1      -40.2950   14.5000    5.5370 O.3    72  THR72      -0.2211
     53  CG2      -42.4020   15.6230    5.3060 C.3    72  THR72       0.0375
     54  N        -46.8330   15.8130    9.1000 N.3    75  GLY75      -0.1210
     55  CA       -47.7660   16.3920    8.1730 C.3    75  GLY75       0.1956
     56  C        -47.7230   15.8080    6.7950 C.2    75  GLY75       0.2612
     57  O        -48.7800   15.6640    6.1420 O.2    75  GLY75      -0.2717
     58  N        -46.5320   15.4160    6.3430 N.am   76  GLY76      -0.1956
     59  CA       -46.4220   14.7910    5.0260 C.3    76  GLY76       0.1869
     60  C        -47.2870   13.5640    4.9690 C.2    76  GLY76       0.2309
     61  O        -48.0560   13.3780    4.0220 O.2    76  GLY76      -0.2863
     62  N        -51.2280   14.2690    5.4750 N.3    79  ASN79      -0.1240
     63  CA       -51.7830   14.7440    4.1570 C.3    79  ASN79       0.1653
     64  C        -51.9780   13.6730    3.1290 C.2    79  ASN79       0.2266
     65  O        -52.7180   13.8990    2.1920 O.2    79  ASN79      -0.2867
     66  CB       -51.0000   15.8780    3.5040 C.3    79  ASN79       0.1155
     67  CG       -50.9740   17.1390    4.3720 C.2    79  ASN79       0.2627
     68  OD1      -51.8130   17.3240    5.2910 O.2    79  ASN79      -0.2716
     69  ND2      -50.0070   17.9800    4.1190 N.am   79  ASN79      -0.0877
     70  N        -39.8320   17.5350   16.7320 N.3   111  LEU111     -0.1231
     71  CA       -40.4490   17.8840   15.4250 C.3   111  LEU111      0.1693
     72  C        -40.7750   16.7150   14.4810 C.2   111  LEU111      0.2591
     73  O        -39.8730   15.9870   14.0490 O.2   111  LEU111     -0.2718
     74  CB       -39.5150   18.8320   14.6590 C.3   111  LEU111      0.0284
     75  CG       -39.8050   19.1810   13.1930 C.3   111  LEU111      0.0019
     76  CD1      -40.8840   20.2830   13.1240 C.3   111  LEU111      0.0001
     77  CD2      -38.5330   19.5470   12.4350 C.3   111  LEU111      0.0001
     78  N        -42.0550   16.5970   14.1210 N.am  112  GLN112     -0.1979
     79  CA       -42.5180   15.6600   13.0990 C.3   112  GLN112      0.1601
     80  C        -42.3900   14.1930   13.4900 C.2   112  GLN112      0.2287
     81  O        -42.4990   13.3220   12.6400 O.2   112  GLN112     -0.2864
     82  CB       -41.8420   15.9150   11.7470 C.3   112  GLN112      0.0394
     83  CG       -42.2120   17.2570   11.1380 C.3   112  GLN112      0.0908
     84  CD       -41.4700   17.5490    9.8550 C.2   112  GLN112      0.2608
     85  OE1      -41.7420   16.9530    8.7830 O.2   112  GLN112     -0.2717
     86  NE2      -40.5340   18.4890    9.9420 N.am  112  GLN112     -0.0878
     87  N        -35.8790    8.4010   10.0590 N.3   162  TRP162     -0.1241
     88  CA       -34.7510    9.2410    9.6310 C.3   162  TRP162      0.1605
     89  C        -33.3460    8.6070    9.8090 C.2   162  TRP162      0.2264
     90  O        -32.5320    8.6750    8.9010 O.2   162  TRP162     -0.2867
     91  CB       -34.8520   10.6380   10.2800 C.3   162  TRP162      0.0550
     92  CG       -34.1530   11.6810    9.4780 C.ar  162  TRP162      0.0003
     93  CD1      -33.6260   11.5400    8.1970 C.ar  162  TRP162      0.0946
     94  CD2      -33.9320   13.0450    9.8500 C.ar  162  TRP162      0.0152
     95  NE1      -33.0800   12.7350    7.7840 N.ar  162  TRP162     -0.2442
     96  CE2      -33.2570   13.6720    8.7720 C.ar  162  TRP162      0.0810
     97  CE3      -34.2250   13.8020   10.9990 C.ar  162  TRP162      0.0012
     98  CZ2      -32.8560   15.0170    8.8210 C.ar  162  TRP162      0.0191
     99  CZ3      -33.8470   15.1470   11.0360 C.ar  162  TRP162      0.0001
    100  CH2      -33.1670   15.7360    9.9510 C.ar  162  TRP162      0.0015
@<TRIPOS>BOND
     1     1     2    1
     2     2     5    1
     3     2     3    1
     4     5     6    1
     5    41    40    2
     6     9     3   am
     7     9    10    1
     8     8     6    1
     9     3     4    2
    10    40    39    1
    11    13    10    1
    12    13    14    1
    13    15    14   ar
    14    15    17   ar
    15     6     7    1
    16    38    39    1
    17    39    42    1
    18    10    11    1
    19    14    16   ar
    20    17    18   ar
    21    16    18   ar
    22    42    43    1
    23    11    12    2
    24    11    19   am
    25    43    44    1
    26    45    44   ar
    27    44    46   ar
    28    19    20    1
    29    65    64    2
    30    22    21    2
    31    64    63    1
    32    20    21    1
    33    47    48    1
    34    66    63    1
    35    66    67    1
    36    21    23   am
    37    61    60    2
    38    69    67   am
    39    63    62    1
    40    67    68    2
    41    23    24    1
    42    48    51    1
    43    48    49    1
    44    51    53    1
    45    51    52    1
    46    60    59    1
    47    26    25    2
    48    24    25    1
    49    24    27    1
    50    59    58    1
    51    25    28   am
    52    30    31    2
    53    30    29    1
    54    28    29    1
    55    49    50    2
    56    57    56    2
    57    58    56   am
    58    29    32    1
    59    56    55    1
    60    32    33    1
    61    95    93   ar
    62    95    96   ar
    63    55    54    1
    64    93    92   ar
    65    33    34   ar
    66    33    35   ar
    67    34    36   ar
    68    96    98   ar
    69    96    94   ar
    70    85    84    2
    71    98   100   ar
    72    90    89    2
    73    92    94   ar
    74    92    91    1
    75    88    89    1
    76    88    87    1
    77    88    91    1
    78    94    97   ar
    79    84    86   am
    80    84    83    1
    81    35    37   ar
    82   100    99   ar
    83    36    37   ar
    84    97    99   ar
    85    83    82    1
    86    82    79    1
    87    77    75    1
    88    81    80    2
    89    79    80    1
    90    79    78    1
    91    76    75    1
    92    75    74    1
    93    73    72    2
    94    78    72   am
    95    72    71    1
    96    74    71    1
    97    71    70    1
