@<TRIPOS>MOLECULE
tmp/3d7tB00.pdb
 166 158 0 0 0
SMALL
GASTEIGER

@<TRIPOS>ATOM
      1  N        -65.3640   39.2310  -73.9530 N.3    16  LEU16      -0.1231
      2  CA       -65.7500   39.9170  -72.7210 C.3    16  LEU16       0.1693
      3  C        -64.6480   40.8160  -72.1640 C.2    16  LEU16       0.2593
      4  O        -64.9290   41.8700  -71.5850 O.2    16  LEU16      -0.2718
      5  CB       -66.1840   38.9030  -71.6590 C.3    16  LEU16       0.0284
      6  CG       -67.3870   38.0220  -71.9890 C.3    16  LEU16       0.0019
      7  CD1      -67.4240   36.8250  -71.0860 C.3    16  LEU16       0.0001
      8  CD2      -68.7040   38.7860  -71.9280 C.3    16  LEU16       0.0001
      9  N        -63.3990   40.3960  -72.3370 N.am   17  GLY17      -0.1942
     10  CA       -62.2700   41.1720  -71.8520 C.3    17  GLY17       0.2014
     11  C        -60.9050   40.6280  -72.2360 C.2    17  GLY17       0.2638
     12  O        -60.7790   39.5530  -72.8280 O.2    17  GLY17      -0.2714
     13  N        -59.8770   41.3820  -71.8640 N.am   18  GLN18      -0.1977
     14  CA       -58.5130   41.1250  -72.3070 C.3    18  GLN18       0.1601
     15  C        -57.5080   40.9930  -71.1810 C.2    18  GLN18       0.2287
     16  O        -57.8570   40.7730  -70.0320 O.2    18  GLN18      -0.2864
     17  CB       -58.0360   42.2570  -73.2080 C.3    18  GLN18       0.0394
     18  CG       -58.2860   42.0360  -74.6630 C.3    18  GLN18       0.0908
     19  CD       -57.6260   43.1030  -75.4870 C.2    18  GLN18       0.2608
     20  OE1      -57.0760   44.0610  -74.9400 O.2    18  GLN18      -0.2717
     21  NE2      -57.6730   42.9540  -76.8090 N.am   18  GLN18      -0.0878
     22  N        -52.4380   37.6950  -70.8040 N.3    21  PHE21      -0.1241
     23  CA       -52.5350   36.2550  -71.0220 C.3    21  PHE21       0.1605
     24  C        -53.3050   35.8450  -72.2720 C.2    21  PHE21       0.2264
     25  O        -53.1040   34.7550  -72.8020 O.2    21  PHE21      -0.2867
     26  CB       -53.2440   35.6260  -69.8340 C.3    21  PHE21       0.0534
     27  CG       -54.6680   36.0950  -69.6680 C.ar   21  PHE21      -0.0203
     28  CD1      -55.7030   35.4730  -70.3500 C.ar   21  PHE21      -0.0042
     29  CD2      -54.9700   37.1630  -68.8310 C.ar   21  PHE21      -0.0042
     30  CE1      -57.0070   35.9040  -70.1990 C.ar   21  PHE21      -0.0003
     31  CE2      -56.2810   37.6000  -68.6660 C.ar   21  PHE21      -0.0003
     32  CZ       -57.2970   36.9720  -69.3480 C.ar   21  PHE21      -0.0000
     33  N        -61.0900   36.5670  -72.8570 N.3    24  VAL24      -0.1245
     34  CA       -62.2150   35.8730  -72.2630 C.3    24  VAL24       0.1561
     35  C        -63.4430   36.0600  -73.1370 C.2    24  VAL24       0.2260
     36  O        -63.7630   37.1690  -73.5650 O.2    24  VAL24      -0.2867
     37  CB       -62.5160   36.3560  -70.8300 C.3    24  VAL24       0.0252
     38  CG1      -63.6410   35.5310  -70.2420 C.3    24  VAL24       0.0019
     39  CG2      -61.2630   36.2870  -69.9670 C.3    24  VAL24       0.0019
     40  N        -67.9990   30.9160  -69.7440 N.3    36  ALA36      -0.1245
     41  CA       -66.9630   31.8810  -70.0530 C.3    36  ALA36       0.1562
     42  C        -65.7180   31.0830  -70.3700 C.2    36  ALA36       0.2260
     43  O        -65.3940   30.1210  -69.6630 O.2    36  ALA36      -0.2867
     44  CB       -66.7220   32.8210  -68.8860 C.3    36  ALA36       0.0290
     45  N        -61.6490   31.1970  -70.9280 N.3    38  LYS38      -0.1245
     46  CA       -60.3910   31.9230  -70.7430 C.3    38  LYS38       0.1561
     47  C        -59.3280   31.3630  -71.7020 C.2    38  LYS38       0.2260
     48  O        -59.1680   30.1470  -71.8190 O.2    38  LYS38      -0.2867
     49  CB       -59.9250   31.8280  -69.2860 C.3    38  LYS38       0.0271
     50  CG       -58.9740   32.9410  -68.8470 C.3    38  LYS38       0.0035
     51  CD       -58.1470   32.5620  -67.6020 C.3    38  LYS38       0.0206
     52  CE       -57.2950   33.7480  -67.1090 C.3    38  LYS38       0.1093
     53  NZ       -56.1750   33.3790  -66.1800 N.3    38  LYS38      -0.1314
     54  N        -67.1300   30.8550  -58.2070 N.3    66  VAL66      -0.1245
     55  CA       -67.2340   30.6970  -59.6590 C.3    66  VAL66       0.1561
     56  C        -66.6330   29.3510  -60.0350 C.2    66  VAL66       0.2260
     57  O        -65.4410   29.1260  -59.8300 O.2    66  VAL66      -0.2867
     58  CB       -66.4760   31.8070  -60.4130 C.3    66  VAL66       0.0252
     59  CG1      -66.7290   31.7060  -61.9150 C.3    66  VAL66       0.0019
     60  CG2      -66.8750   33.1790  -59.8790 C.3    66  VAL66       0.0019
     61  N        -65.4390   28.0360  -67.7080 N.3    81  THR81      -0.1203
     62  CA       -65.9140   28.4500  -66.3940 C.3    81  THR81       0.1994
     63  C        -67.3790   28.8470  -66.4490 C.2    81  THR81       0.2618
     64  O        -67.9460   28.9550  -67.5270 O.2    81  THR81      -0.2717
     65  CB       -65.1120   29.6800  -65.9690 C.3    81  THR81       0.1784
     66  OG1      -63.7440   29.3010  -65.8020 O.3    81  THR81      -0.2211
     67  CG2      -65.6340   30.2680  -64.6740 C.3    81  THR81       0.0376
     68  N        -67.9980   29.0840  -65.3010 N.am   82  GLU82      -0.1965
     69  CA       -69.3700   29.5550  -65.3230 C.3    82  GLU82       0.1733
     70  C        -69.4320   31.0180  -65.7000 C.2    82  GLU82       0.2616
     71  O        -68.4720   31.7670  -65.5060 O.2    82  GLU82      -0.2715
     72  CB       -70.0960   29.2780  -64.0180 C.3    82  GLU82       0.0429
     73  CG       -69.8170   30.2170  -62.8920 C.3    82  GLU82       0.1163
     74  CD       -70.6910   29.8870  -61.6920 C.2    82  GLU82       0.3649
     75  OE1      -70.1390   29.5160  -60.6320 O.co2  82  GLU82      -0.2457
     76  OE2      -71.9340   29.9670  -61.8230 O.co2  82  GLU82      -0.2457
     77  N        -70.5630   31.4020  -66.2810 N.am   83  TYR83      -0.1960
     78  CA       -70.7160   32.7320  -66.8440 C.3    83  TYR83       0.1771
     79  C        -71.3650   33.6900  -65.8470 C.2    83  TYR83       0.2619
     80  O        -72.5250   33.5130  -65.4500 O.2    83  TYR83      -0.2715
     81  CB       -71.5120   32.6690  -68.1460 C.3    83  TYR83       0.0574
     82  CG       -71.7610   34.0170  -68.7900 C.ar   83  TYR83      -0.0198
     83  CD1      -70.7170   34.9180  -69.0060 C.ar   83  TYR83      -0.0009
     84  CD2      -73.0380   34.3890  -69.1950 C.ar   83  TYR83      -0.0009
     85  CE1      -70.9460   36.1610  -69.6040 C.ar   83  TYR83       0.0417
     86  CE2      -73.2750   35.6200  -69.7920 C.ar   83  TYR83       0.0417
     87  CZ       -72.2310   36.5020  -69.9960 C.ar   83  TYR83       0.1957
     88  OH       -72.4780   37.7230  -70.5910 O.3    83  TYR83      -0.2866
     89  N        -70.5920   34.6950  -65.4440 N.am   84  MET84      -0.1963
     90  CA       -71.0640   35.7410  -64.5520 C.3    84  MET84       0.1736
     91  C        -71.4200   36.9900  -65.3660 C.2    84  MET84       0.2617
     92  O        -70.6350   37.9350  -65.4610 O.2    84  MET84      -0.2715
     93  CB       -69.9940   36.0570  -63.5060 C.3    84  MET84       0.0427
     94  CG       -69.4760   34.8460  -62.7340 C.3    84  MET84       0.0599
     95  SD       -70.7800   33.9350  -61.8770 S.3    84  MET84      -0.1393
     96  CE       -71.3320   35.1900  -60.7170 C.3    84  MET84       0.0692
     97  N        -72.6220   36.9820  -65.9390 N.am   85  SER85      -0.1936
     98  CA       -73.0510   37.9660  -66.9470 C.3    85  SER85       0.2055
     99  C        -72.8010   39.4650  -66.7000 C.2    85  SER85       0.2643
    100  O        -72.8160   40.2630  -67.6350 O.2    85  SER85      -0.2714
    101  CB       -74.5290   37.7540  -67.2630 C.3    85  SER85       0.2130
    102  OG       -75.2370   37.4860  -66.0760 O.3    85  SER85      -0.2179
    103  N        -72.5800   39.8580  -65.4560 N.am   86  LYS86      -0.1963
    104  CA       -72.4210   41.2750  -65.1620 C.3    86  LYS86       0.1728
    105  C        -70.9600   41.7090  -65.0300 C.2    86  LYS86       0.2617
    106  O        -70.6720   42.8900  -64.7960 O.2    86  LYS86      -0.2715
    107  CB       -73.2300   41.6760  -63.9140 C.3    86  LYS86       0.0311
    108  CG       -74.7500   41.7260  -64.1100 C.3    86  LYS86       0.0038
    109  CD       -75.1790   42.8620  -65.0560 C.3    86  LYS86       0.0206
    110  CE       -76.6440   42.7150  -65.4900 C.3    86  LYS86       0.1093
    111  NZ       -76.9070   41.3950  -66.1360 N.3    86  LYS86      -0.1314
    112  N        -70.0310   40.7720  -65.1790 N.am   87  GLY87      -0.1940
    113  CA       -68.6170   41.1100  -65.0720 C.3    87  GLY87       0.2014
    114  C        -68.1180   41.3340  -63.6530 C.2    87  GLY87       0.2639
    115  O        -68.6590   40.7730  -62.7150 O.2    87  GLY87      -0.2714
    116  N        -67.0850   42.1550  -63.4940 N.am   88  SER88      -0.1949
    117  CA       -66.4960   42.3740  -62.1700 C.3    88  SER88       0.1924
    118  C        -67.3090   43.3220  -61.2540 C.2    88  SER88       0.2314
    119  O        -67.9880   44.2410  -61.7230 O.2    88  SER88      -0.2863
    120  CB       -65.0130   42.7880  -62.2760 C.3    88  SER88       0.2116
    121  OG       -64.8280   44.1880  -62.1600 O.3    88  SER88      -0.2180
    122  N        -66.3100   47.2840  -61.3960 N.3    91  ASP91      -0.1239
    123  CA       -66.8620   47.9310  -62.5860 C.3    91  ASP91       0.1674
    124  C        -68.3340   48.2050  -62.3580 C.2    91  ASP91       0.2266
    125  O        -68.8250   49.3100  -62.6040 O.2    91  ASP91      -0.2867
    126  CB       -66.6940   47.0400  -63.8230 C.3    91  ASP91       0.1410
    127  CG       -65.2830   47.1020  -64.4150 C.2    91  ASP91       0.3668
    128  OD1      -64.5550   48.0840  -64.1290 O.co2  91  ASP91      -0.2456
    129  OD2      -64.9110   46.1700  -65.1770 O.co2  91  ASP91      -0.2456
    130  N        -62.7130   44.1250  -57.5500 N.3   133  ALA133     -0.1245
    131  CA       -62.1220   43.7960  -58.8320 C.3   133  ALA133      0.1562
    132  C        -62.0700   42.2850  -59.0880 C.2   133  ALA133      0.2260
    133  O        -62.2350   41.8400  -60.2310 O.2   133  ALA133     -0.2867
    134  CB       -60.7280   44.3890  -58.9150 C.3   133  ALA133      0.0290
    135  N        -66.9130   38.3490  -58.9940 N.3   136  LEU136     -0.1245
    136  CA       -67.7800   38.3880  -60.1650 C.3   136  LEU136      0.1561
    137  C        -69.2480   38.4530  -59.7870 C.2   136  LEU136      0.2260
    138  O        -69.6730   37.9160  -58.7590 O.2   136  LEU136     -0.2867
    139  CB       -67.5210   37.2120  -61.1150 C.3   136  LEU136      0.0270
    140  CG       -66.2440   37.2380  -61.9570 C.3   136  LEU136      0.0019
    141  CD1      -66.1310   35.9370  -62.6830 C.3   136  LEU136      0.0001
    142  CD2      -66.2540   38.3920  -62.9340 C.3   136  LEU136      0.0001
    143  N        -63.2930   34.1060  -57.4220 N.3   146  ALA146     -0.1231
    144  CA       -62.8150   33.5740  -58.7090 C.3   146  ALA146      0.1694
    145  C        -61.3790   32.9970  -58.9050 C.2   146  ALA146      0.2592
    146  O        -60.7050   32.6180  -57.9580 O.2   146  ALA146     -0.2718
    147  CB       -63.1500   34.5810  -59.8260 C.3   146  ALA146      0.0304
    148  N        -60.9700   32.9380  -60.1840 N.am  147  ASP147     -0.1960
    149  CA       -59.7250   32.3340  -60.7260 C.3   147  ASP147      0.1840
    150  C        -58.4600   33.2000  -60.5820 C.2   147  ASP147      0.2622
    151  O        -57.6300   33.2880  -61.5210 O.2   147  ASP147     -0.2715
    152  CB       -59.9160   32.0180  -62.2300 C.3   147  ASP147      0.1450
    153  CG       -60.0720   30.5290  -62.5150 C.2   147  ASP147      0.3671
    154  OD1      -59.0150   29.8660  -62.5290 O.co2 147  ASP147     -0.2456
    155  OD2      -61.2170   30.0260  -62.7350 O.co2 147  ASP147     -0.2456
    156  N        -58.3360   33.8370  -59.4110 N.am  148  PHE148     -0.1974
    157  CA       -57.1630   34.6350  -59.0350 C.3   148  PHE148      0.1639
    158  C        -56.7890   34.4310  -57.5630 C.2   148  PHE148      0.2290
    159  O        -57.5160   34.8960  -56.6800 O.2   148  PHE148     -0.2864
    160  CB       -57.4130   36.1360  -59.2210 C.3   148  PHE148      0.0560
    161  CG       -58.4580   36.4700  -60.2350 C.ar  148  PHE148     -0.0200
    162  CD1      -59.7190   35.9160  -60.1690 C.ar  148  PHE148     -0.0042
    163  CD2      -58.2050   37.3980  -61.2100 C.ar  148  PHE148     -0.0042
    164  CE1      -60.6960   36.2430  -61.1000 C.ar  148  PHE148     -0.0003
    165  CE2      -59.1820   37.7400  -62.1310 C.ar  148  PHE148     -0.0003
    166  CZ       -60.4260   37.1520  -62.0770 C.ar  148  PHE148     -0.0000
@<TRIPOS>BOND
     1    21    19   am
     2    19    20    2
     3    19    18    1
     4    18    17    1
     5     1     2    1
     6    36    35    2
     7    17    14    1
     8    35    34    1
     9    33    34    1
    10    12    11    2
    11    25    24    2
    12     2     3    1
    13     2     5    1
    14     9     3   am
    15     9    10    1
    16    14    13    1
    17    14    15    1
    18    24    23    1
    19    34    37    1
    20    11    13   am
    21    11    10    1
    22     3     4    2
    23     6     8    1
    24     6     5    1
    25     6     7    1
    26    48    47    2
    27    47    46    1
    28    15    16    2
    29    23    22    1
    30    23    26    1
    31    45    46    1
    32    37    38    1
    33    37    39    1
    34    46    49    1
    35    88    87    1
    36    42    41    1
    37    42    43    2
    38    28    30   ar
    39    28    27   ar
    40    30    32   ar
    41    41    40    1
    42    41    44    1
    43    87    86   ar
    44    87    85   ar
    45    26    27    1
    46    86    84   ar
    47    27    29   ar
    48    85    83   ar
    49    32    31   ar
    50    49    50    1
    51    84    82   ar
    52    83    82   ar
    53    50    51    1
    54    29    31   ar
    55    82    81    1
    56    81    78    1
    57    61    62    1
    58   100    99    2
    59    51    52    1
    60    64    63    2
    61   101    98    1
    62   101   102    1
    63    52    53    1
    64    98    99    1
    65    98    97    1
    66    78    77    1
    67    78    79    1
    68    99   103   am
    69    63    62    1
    70    63    68   am
    71    62    65    1
    72    77    70   am
    73   111   110    1
    74    65    66    1
    75    65    67    1
    76    97    91   am
    77    79    80    2
    78    79    89   am
    79    70    71    2
    80    70    69    1
    81   110   109    1
    82    92    91    2
    83   103   104    1
    84    89    90    1
    85    91    90    1
    86    69    68    1
    87    69    72    1
    88   112   113    1
    89   112   105   am
    90   129   127   ar
    91   104   105    1
    92   104   107    1
    93   113   114    1
    94   109   108    1
    95   105   106    2
    96    90    93    1
    97   127   128   ar
    98   127   126    1
    99   108   107    1
   100    72    73    1
   101   126   123    1
   102   114   116   am
   103   114   115    2
   104    93    94    1
   105   116   117    1
   106   142   140    1
   107    73    74    1
   108   155   153   ar
   109    94    95    1
   110   141   140    1
   111   125   124    2
   112   123   124    1
   113   123   122    1
   114   154   153   ar
   115   153   152    1
   116   120   117    1
   117   120   121    1
   118   152   149    1
   119   117   118    1
   120   165   166   ar
   121   165   163   ar
   122   166   164   ar
   123   140   139    1
   124    59    58    1
   125    95    96    1
   126    76    74   ar
   127   119   118    2
   128    74    75   ar
   129   151   150    2
   130   163   161   ar
   131   139   136    1
   132   164   162   ar
   133   149   150    1
   134   149   148    1
   135   150   156   am
   136    58    60    1
   137    58    55    1
   138   161   162   ar
   139   161   160    1
   140   133   132    2
   141   148   145   am
   142   136   137    1
   143   136   135    1
   144    56    57    2
   145    56    55    1
   146   147   144    1
   147   137   138    2
   148    55    54    1
   149   156   157    1
   150   160   157    1
   151   132   131    1
   152   157   158    1
   153   134   131    1
   154   145   144    1
   155   145   146    2
   156   131   130    1
   157   144   143    1
   158   158   159    2
