@<TRIPOS>MOLECULE
tmp/3d7tA00.pdb
 173 164 0 0 0
SMALL
GASTEIGER

@<TRIPOS>ATOM
      1  N        -60.4930   46.9780  -19.5990 N.3    14  ILE14      -0.1231
      2  CA       -60.8290   45.8920  -20.4990 C.3    14  ILE14       0.1692
      3  C        -62.3210   45.8740  -20.8160 C.2    14  ILE14       0.2593
      4  O        -62.7640   45.1650  -21.7170 O.2    14  ILE14      -0.2718
      5  CB       -60.4140   44.5340  -19.8940 C.3    14  ILE14       0.0266
      6  CG1      -60.7260   44.4920  -18.3950 C.3    14  ILE14       0.0019
      7  CG2      -58.9310   44.2920  -20.1000 C.3    14  ILE14       0.0020
      8  CD1      -60.3360   43.1870  -17.7200 C.3    14  ILE14       0.0001
      9  N        -63.0930   46.6610  -20.0760 N.am   15  GLY15      -0.1942
     10  CA       -64.5390   46.6130  -20.1910 C.3    15  GLY15       0.2014
     11  C        -65.2330   47.9510  -20.0390 C.2    15  GLY15       0.2639
     12  O        -64.9160   48.7380  -19.1470 O.2    15  GLY15      -0.2714
     13  N        -66.1950   48.2010  -20.9200 N.am   16  LYS16      -0.1963
     14  CA       -66.9310   49.4570  -20.9260 C.3    16  LYS16       0.1728
     15  C        -68.4320   49.2040  -20.9860 C.2    16  LYS16       0.2616
     16  O        -69.1180   49.6800  -21.8950 O.2    16  LYS16      -0.2715
     17  CB       -66.4900   50.3390  -22.1020 C.3    16  LYS16       0.0311
     18  CG       -65.2220   51.1490  -21.8370 C.3    16  LYS16       0.0038
     19  CD       -65.3920   52.0370  -20.6040 C.3    16  LYS16       0.0206
     20  CE       -64.1980   52.9620  -20.3800 C.3    16  LYS16       0.1093
     21  NZ       -64.4390   53.9180  -19.2570 N.3    16  LYS16      -0.1314
     22  N        -68.9350   48.4460  -20.0150 N.am   17  GLY17      -0.1955
     23  CA       -70.3580   48.1730  -19.9280 C.3    17  GLY17       0.1869
     24  C        -71.1510   49.4320  -19.6240 C.2    17  GLY17       0.2309
     25  O        -70.7720   50.2130  -18.7480 O.2    17  GLY17      -0.2863
     26  N        -71.4980   49.3770  -16.1930 N.3    20  GLY20      -0.1225
     27  CA       -70.3130   49.4540  -15.3570 C.3    20  GLY20       0.1811
     28  C        -68.9990   49.5510  -16.1160 C.2    20  GLY20       0.2280
     29  O        -68.9370   49.3080  -17.3220 O.2    20  GLY20      -0.2866
     30  N        -65.1680   48.0520  -16.1530 N.3    22  VAL22      -0.1245
     31  CA       -64.3300   46.9500  -15.6660 C.3    22  VAL22       0.1561
     32  C        -62.8440   47.1480  -15.9890 C.2    22  VAL22       0.2260
     33  O        -62.5000   47.6160  -17.0700 O.2    22  VAL22      -0.2867
     34  CB       -64.8050   45.5990  -16.2440 C.3    22  VAL22       0.0252
     35  CG1      -63.9150   44.4670  -15.7640 C.3    22  VAL22       0.0019
     36  CG2      -66.2510   45.3390  -15.8600 C.3    22  VAL22       0.0019
     37  N        -59.6020   41.4900  -11.7700 N.3    33  ALA33      -0.1245
     38  CA       -60.6020   42.2940  -12.4580 C.3    33  ALA33       0.1562
     39  C        -61.3440   43.1870  -11.4610 C.2    33  ALA33       0.2260
     40  O        -62.0040   42.6940  -10.5490 O.2    33  ALA33      -0.2867
     41  CB       -61.5760   41.4050  -13.2210 C.3    33  ALA33       0.0290
     42  N        -64.2410   45.8790  -10.9260 N.3    35  LYS35      -0.1245
     43  CA       -65.4380   46.5660  -11.4000 C.3    35  LYS35       0.1561
     44  C        -65.5570   47.9450  -10.7480 C.2    35  LYS35       0.2260
     45  O        -65.8730   48.0650   -9.5630 O.2    35  LYS35      -0.2867
     46  CB       -66.6960   45.7470  -11.0980 C.3    35  LYS35       0.0271
     47  CG       -66.5470   44.2350  -11.2390 C.3    35  LYS35       0.0035
     48  CD       -67.8790   43.5330  -10.9610 C.3    35  LYS35       0.0206
     49  CE       -67.8010   42.0250  -11.1760 C.3    35  LYS35       0.1093
     50  NZ       -69.1270   41.3570  -10.9880 N.3    35  LYS35      -0.1314
     51  N        -67.2290   33.0470  -11.4040 N.3    62  VAL62      -0.1245
     52  CA       -66.1660   34.0150  -11.2150 C.3    62  VAL62       0.1561
     53  C        -66.1130   34.3520   -9.7370 C.2    62  VAL62       0.2260
     54  O        -67.0490   34.9450   -9.1860 O.2    62  VAL62      -0.2867
     55  CB       -66.3740   35.2970  -12.0410 C.3    62  VAL62       0.0252
     56  CG1      -65.4800   36.3940  -11.5190 C.3    62  VAL62       0.0019
     57  CG2      -66.0800   35.0450  -13.5110 C.3    62  VAL62       0.0019
     58  N        -62.9260   41.1070   -8.6500 N.3    79  THR79      -0.1203
     59  CA       -63.2740   39.7730   -9.1040 C.3    79  THR79       0.1994
     60  C        -62.0280   39.0490   -9.5970 C.2    79  THR79       0.2618
     61  O        -61.0200   39.6900   -9.9100 O.2    79  THR79      -0.2717
     62  CB       -64.3440   39.8580  -10.2110 C.3    79  THR79       0.1784
     63  OG1      -65.5600   39.2630   -9.7450 O.3    79  THR79      -0.2211
     64  CG2      -63.8900   39.1480  -11.4680 C.3    79  THR79       0.0376
     65  N        -62.0870   37.7180   -9.6320 N.am   80  GLU80      -0.1965
     66  CA       -60.9990   36.9150  -10.2000 C.3    80  GLU80       0.1733
     67  C        -60.8590   37.1520  -11.7080 C.2    80  GLU80       0.2616
     68  O        -61.8570   37.2010  -12.4320 O.2    80  GLU80      -0.2715
     69  CB       -61.2130   35.4240   -9.9260 C.3    80  GLU80       0.0429
     70  CG       -62.3840   34.7940  -10.6720 C.3    80  GLU80       0.1163
     71  CD       -62.2270   33.2920  -10.8360 C.2    80  GLU80       0.3649
     72  OE1      -63.2130   32.5560  -10.6080 O.co2  80  GLU80      -0.2457
     73  OE2      -61.1110   32.8510  -11.1890 O.co2  80  GLU80      -0.2457
     74  N        -59.6220   37.2880  -12.1760 N.am   81  TYR81      -0.1960
     75  CA       -59.3570   37.6200  -13.5750 C.3    81  TYR81       0.1771
     76  C        -59.6000   36.4630  -14.5570 C.2    81  TYR81       0.2619
     77  O        -58.9620   35.4090  -14.4700 O.2    81  TYR81      -0.2715
     78  CB       -57.9300   38.1520  -13.7250 C.3    81  TYR81       0.0574
     79  CG       -57.6070   38.6390  -15.1120 C.ar   81  TYR81      -0.0198
     80  CD1      -58.3050   39.7030  -15.6750 C.ar   81  TYR81      -0.0009
     81  CD2      -56.6000   38.0410  -15.8620 C.ar   81  TYR81      -0.0009
     82  CE1      -58.0130   40.1560  -16.9490 C.ar   81  TYR81       0.0417
     83  CE2      -56.2990   38.4880  -17.1390 C.ar   81  TYR81       0.0417
     84  CZ       -57.0090   39.5450  -17.6750 C.ar   81  TYR81       0.1957
     85  OH       -56.7150   39.9930  -18.9400 O.3    81  TYR81      -0.2866
     86  N        -60.5280   36.6710  -15.4900 N.am   82  MET82      -0.1963
     87  CA       -60.7970   35.6980  -16.5410 C.3    82  MET82       0.1736
     88  C        -60.0680   36.1240  -17.8200 C.2    82  MET82       0.2616
     89  O        -60.6220   36.8360  -18.6660 O.2    82  MET82      -0.2715
     90  CB       -62.3010   35.5650  -16.7790 C.3    82  MET82       0.0427
     91  CG       -63.0900   35.0110  -15.5900 C.3    82  MET82       0.0599
     92  SD       -63.2700   33.2030  -15.5140 S.3    82  MET82      -0.1393
     93  CE       -61.6950   32.7140  -14.8160 C.3    82  MET82       0.0692
     94  N        -58.8240   35.6600  -17.9400 N.am   83  ALA83      -0.1963
     95  CA       -57.8560   36.1400  -18.9300 C.3    83  ALA83       0.1728
     96  C        -58.4160   36.4670  -20.3050 C.2    83  ALA83       0.2616
     97  O        -58.2130   37.5710  -20.8300 O.2    83  ALA83      -0.2715
     98  CB       -56.7320   35.1460  -19.0700 C.3    83  ALA83       0.0334
     99  N        -59.0990   35.4910  -20.8920 N.am   84  LYS84      -0.1963
    100  CA       -59.4850   35.5760  -22.2930 C.3    84  LYS84       0.1728
    101  C        -60.6990   36.4700  -22.5190 C.2    84  LYS84       0.2617
    102  O        -60.7760   37.1790  -23.5260 O.2    84  LYS84      -0.2715
    103  CB       -59.7030   34.1790  -22.8630 C.3    84  LYS84       0.0311
    104  CG       -58.4120   33.4040  -23.0740 C.3    84  LYS84       0.0038
    105  CD       -58.7390   31.9660  -23.3780 C.3    84  LYS84       0.0206
    106  CE       -57.5190   31.1640  -23.7380 C.3    84  LYS84       0.1093
    107  NZ       -57.8870   29.7240  -23.7680 N.3    84  LYS84      -0.1314
    108  N        -61.6410   36.4410  -21.5810 N.am   85  GLY85      -0.1940
    109  CA       -62.7340   37.3950  -21.5970 C.3    85  GLY85       0.2014
    110  C        -64.0470   36.8420  -22.1060 C.2    85  GLY85       0.2639
    111  O        -64.3920   35.6900  -21.8290 O.2    85  GLY85      -0.2714
    112  N        -64.7760   37.6690  -22.8530 N.am   86  SER86      -0.1949
    113  CA       -66.0970   37.2970  -23.3520 C.3    86  SER86       0.1924
    114  C        -66.0400   36.0500  -24.2250 C.2    86  SER86       0.2314
    115  O        -65.3090   35.9950  -25.2110 O.2    86  SER86      -0.2863
    116  CB       -66.7480   38.4530  -24.1190 C.3    86  SER86       0.2116
    117  OG       -68.1310   38.2000  -24.3150 O.3    86  SER86      -0.2180
    118  N        -67.1260   36.7680  -27.8830 N.3    89  ASP89      -0.1239
    119  CA       -66.1480   37.3930  -28.7580 C.3    89  ASP89       0.1674
    120  C        -65.0830   36.3800  -29.1550 C.2    89  ASP89       0.2266
    121  O        -64.5810   36.3900  -30.2780 O.2    89  ASP89      -0.2867
    122  CB       -65.5280   38.6130  -28.0780 C.3    89  ASP89       0.1410
    123  CG       -66.5310   39.7300  -27.8820 C.2    89  ASP89       0.3668
    124  OD1      -67.3660   39.9430  -28.7900 O.co2  89  ASP89      -0.2456
    125  OD2      -66.4890   40.3880  -26.8210 O.co2  89  ASP89      -0.2456
    126  N        -72.7310   36.2670  -23.7200 N.3   131  ARG131     -0.1231
    127  CA       -72.0950   37.5760  -23.6340 C.3   131  ARG131      0.1694
    128  C        -71.6560   37.7410  -22.1960 C.2   131  ARG131      0.2592
    129  O        -70.7470   38.5170  -21.8880 O.2   131  ARG131     -0.2718
    130  CB       -73.0820   38.6820  -24.0030 C.3   131  ARG131      0.0321
    131  CG       -74.4520   38.4950  -23.3770 C.3   131  ARG131      0.0489
    132  CD       -75.4530   39.5450  -23.8430 C.3   131  ARG131      0.2205
    133  NE       -76.6600   39.5010  -23.0190 N.pl3 131  ARG131     -0.0865
    134  CZ       -77.7900   38.8880  -23.3610 C.cat 131  ARG131      0.5346
    135  NH1      -77.8880   38.2710  -24.5320 N.pl3 131  ARG131      0.1354
    136  NH2      -78.8270   38.8980  -22.5290 N.pl3 131  ARG131      0.1354
    137  N        -72.3180   36.9700  -21.3320 N.am  132  ASN132     -0.1960
    138  CA       -72.1660   37.0500  -19.8840 C.3   132  ASN132      0.1819
    139  C        -71.1750   36.0330  -19.3380 C.2   132  ASN132      0.2621
    140  O        -70.9160   35.9950  -18.1310 O.2   132  ASN132     -0.2715
    141  CB       -73.5230   36.8550  -19.1940 C.3   132  ASN132      0.1195
    142  CG       -74.4180   38.0780  -19.2980 C.2   132  ASN132      0.2630
    143  OD1      -73.9400   39.2070  -19.4480 O.2   132  ASN132     -0.2716
    144  ND2      -75.7260   37.8580  -19.2160 N.am  132  ASN132     -0.0877
    145  N        -70.6330   35.1970  -20.2170 N.am  133  VAL133     -0.1963
    146  CA       -69.6270   34.2410  -19.7940 C.3   133  VAL133      0.1727
    147  C        -68.2370   34.7740  -20.0940 C.2   133  VAL133      0.2616
    148  O        -68.0570   35.6430  -20.9530 O.2   133  VAL133     -0.2715
    149  CB       -69.8330   32.8870  -20.4500 C.3   133  VAL133      0.0290
    150  CG1      -68.8050   31.8920  -19.9480 C.3   133  VAL133      0.0023
    151  CG2      -71.2360   32.3970  -20.1640 C.3   133  VAL133      0.0023
    152  N        -67.2610   34.2640  -19.3540 N.am  134  LEU134     -0.1977
    153  CA       -65.8790   34.6800  -19.5040 C.3   134  LEU134      0.1596
    154  C        -64.9720   33.4600  -19.4840 C.2   134  LEU134      0.2287
    155  O        -65.3730   32.3840  -19.0360 O.2   134  LEU134     -0.2864
    156  CB       -65.5000   35.6490  -18.3900 C.3   134  LEU134      0.0297
    157  CG       -66.2540   36.9730  -18.4480 C.3   134  LEU134      0.0022
    158  CD1      -66.4450   37.5270  -17.0540 C.3   134  LEU134      0.0001
    159  CD2      -65.5250   37.9650  -19.3310 C.3   134  LEU134      0.0001
    160  N        -70.4500   35.6320  -14.7000 N.3   144  SER144     -0.1202
    161  CA       -70.0230   36.9130  -14.1240 C.3   144  SER144      0.2020
    162  C        -71.0800   37.6810  -13.3080 C.2   144  SER144      0.2618
    163  O        -71.0250   37.7230  -12.0730 O.2   144  SER144     -0.2717
    164  CB       -69.4730   37.8230  -15.2250 C.3   144  SER144      0.2103
    165  OG       -70.4770   38.1340  -16.1780 O.3   144  SER144     -0.2182
    166  N        -72.0280   38.3040  -14.0060 N.am  145  ASP145     -0.1973
    167  CA       -72.9310   39.2690  -13.3760 C.3   145  ASP145      0.1709
    168  C        -74.3910   38.8150  -13.2980 C.2   145  ASP145      0.2293
    169  O        -75.0430   38.5790  -14.3190 O.2   145  ASP145     -0.2864
    170  CB       -72.8440   40.6220  -14.0880 C.3   145  ASP145      0.1436
    171  CG       -73.1180   41.7820  -13.1560 C.2   145  ASP145      0.3671
    172  OD1      -72.8890   41.6160  -11.9390 O.co2 145  ASP145     -0.2456
    173  OD2      -73.5560   42.8530  -13.6340 O.co2 145  ASP145     -0.2456
@<TRIPOS>BOND
     1   121   120    2
     2   120   119    1
     3   124   123   ar
     4   119   122    1
     5   119   118    1
     6   122   123    1
     7   123   125   ar
     8   115   114    2
     9   135   134    1
    10   117   116    1
    11   114   113    1
    12   116   113    1
    13   130   127    1
    14   130   131    1
    15   132   131    1
    16   132   133    1
    17   107   106    1
    18   106   105    1
    19   126   127    1
    20   127   128    1
    21   102   101    2
    22   105   104    1
    23   134   133    2
    24   134   136    1
    25   113   112    1
    26   104   103    1
    27   103   100    1
    28   112   110   am
    29   101   100    1
    30   101   108   am
    31   100    99    1
    32   128   129    2
    33   128   137   am
    34   110   111    2
    35   110   109    1
    36    17    18    1
    37    17    14    1
    38    16    15    2
    39    18    19    1
    40     4     3    2
    41   109   108    1
    42   137   138    1
    43    15    14    1
    44    15    22   am
    45   148   147    2
    46    14    13    1
    47    13    11   am
    48    99    96   am
    49    97    96    2
    50     3     2    1
    51     3     9   am
    52    19    20    1
    53     2     5    1
    54     2     1    1
    55   149   151    1
    56   149   150    1
    57   149   146    1
    58    20    21    1
    59    96    95    1
    60   145   146    1
    61   145   139   am
    62    10     9    1
    63    10    11    1
    64     7     5    1
    65   147   146    1
    66   147   152   am
    67    11    12    2
    68    22    23    1
    69    23    24    1
    70     5     6    1
    71   138   139    1
    72   138   141    1
    73    24    25    2
    74   153   154    1
    75   153   152    1
    76   153   156    1
    77   154   155    2
    78   143   142    2
    79   139   140    2
    80   159   157    1
    81   142   144   am
    82   142   141    1
    83    98    95    1
    84    85    84    1
    85    95    94    1
    86    89    88    2
    87   157   156    1
    88   157   158    1
    89     6     8    1
    90    94    88   am
    91    88    87    1
    92    84    83   ar
    93    84    82   ar
    94    29    28    2
    95    83    81   ar
    96    33    32    2
    97    82    80   ar
    98    90    87    1
    99    90    91    1
   100    87    86    1
   101    34    36    1
   102    34    35    1
   103    34    31    1
   104    26    27    1
   105   165   164    1
   106    30    31    1
   107    28    27    1
   108    32    31    1
   109    81    79   ar
   110    80    79   ar
   111    91    92    1
   112    92    93    1
   113    86    76   am
   114   164   161    1
   115    79    78    1
   116   160   161    1
   117    76    77    2
   118    76    75    1
   119   169   168    2
   120   161   162    1
   121   170   167    1
   122   170   171    1
   123   166   167    1
   124   166   162   am
   125    78    75    1
   126   173   171   ar
   127    75    74    1
   128    57    55    1
   129   167   168    1
   130   162   163    2
   131    41    38    1
   132   171   172   ar
   133    38    37    1
   134    38    39    1
   135    68    67    2
   136    74    67   am
   137    55    56    1
   138    55    52    1
   139    67    66    1
   140    64    62    1
   141    39    40    2
   142    51    52    1
   143    43    46    1
   144    43    42    1
   145    43    44    1
   146    47    46    1
   147    47    48    1
   148    52    53    1
   149    73    71   ar
   150    49    50    1
   151    49    48    1
   152    71    70    1
   153    71    72   ar
   154    44    45    2
   155    70    69    1
   156    62    63    1
   157    62    59    1
   158    66    69    1
   159    66    65    1
   160    61    60    2
   161    53    54    2
   162    65    60   am
   163    60    59    1
   164    59    58    1
