@<TRIPOS>MOLECULE
tmp/3d7zA00.pdb
 183 172 0 0 0
SMALL
GASTEIGER

@<TRIPOS>ATOM
      1  N         46.7610   32.6210   23.3170 N.3    27  VAL27      -0.1231
      2  CA        47.7360   32.6590   24.4290 C.3    27  VAL27       0.1692
      3  C         47.8840   31.3210   25.1640 C.2    27  VAL27       0.2592
      4  O         47.1010   30.3880   24.9580 O.2    27  VAL27      -0.2718
      5  CB        47.4150   33.7500   25.5120 C.3    27  VAL27       0.0266
      6  CG1       47.8940   35.1320   25.0790 C.3    27  VAL27       0.0020
      7  CG2       45.9540   33.7520   25.8880 C.3    27  VAL27       0.0020
      8  N         48.8880   31.2510   26.0360 N.am   28  GLY28      -0.1957
      9  CA        49.1010   30.0800   26.8960 C.3    28  GLY28       0.1869
     10  C         49.9830   28.9990   26.2930 C.2    28  GLY28       0.2309
     11  O         50.4380   28.1000   27.0130 O.2    28  GLY28      -0.2863
     12  N         46.4020   26.4590   28.8500 N.3    32  TYR32      -0.1241
     13  CA        45.1150   26.7430   29.5170 C.3    32  TYR32       0.1605
     14  C         43.8970   26.3030   28.6860 C.2    32  TYR32       0.2264
     15  O         42.7610   26.6240   29.0210 O.2    32  TYR32      -0.2867
     16  CB        45.0250   28.2200   29.9990 C.3    32  TYR32       0.0534
     17  CG        46.2510   28.6140   30.8070 C.ar   32  TYR32      -0.0201
     18  CD1       46.4300   28.1540   32.1240 C.ar   32  TYR32      -0.0009
     19  CD2       47.2650   29.4010   30.2370 C.ar   32  TYR32      -0.0009
     20  CE1       47.5870   28.4850   32.8590 C.ar   32  TYR32       0.0417
     21  CE2       48.4190   29.7360   30.9610 C.ar   32  TYR32       0.0417
     22  CZ        48.5790   29.2760   32.2680 C.ar   32  TYR32       0.1957
     23  OH        49.7240   29.6140   32.9650 O.3    32  TYR32      -0.2866
     24  N         42.5640   29.3950   24.5470 N.3    35  VAL35      -0.1245
     25  CA        42.4040   30.6980   25.1670 C.3    35  VAL35       0.1561
     26  C         43.0150   31.7930   24.2780 C.2    35  VAL35       0.2260
     27  O         44.1350   31.6610   23.8220 O.2    35  VAL35      -0.2867
     28  CB        43.0170   30.7380   26.5840 C.3    35  VAL35       0.0252
     29  CG1       42.7250   32.0860   27.2580 C.3    35  VAL35       0.0019
     30  CG2       42.4570   29.5820   27.4510 C.3    35  VAL35       0.0019
     31  N         40.7490   37.3660   28.8770 N.3    48  ALA48      -0.1245
     32  CA        41.0920   36.0580   28.3500 C.3    48  ALA48       0.1562
     33  C         39.7690   35.4200   27.9320 C.2    48  ALA48       0.2260
     34  O         38.8020   35.3950   28.7130 O.2    48  ALA48      -0.2867
     35  CB        41.8190   35.1870   29.4210 C.3    48  ALA48       0.0290
     36  N         38.0750   31.9080   26.6520 N.3    50  LYS50      -0.1245
     37  CA        38.2440   30.4750   26.4850 C.3    50  LYS50       0.1561
     38  C         37.0790   29.9040   25.6720 C.2    50  LYS50       0.2260
     39  O         35.9160   30.0390   26.0490 O.2    50  LYS50      -0.2867
     40  CB        38.3240   29.7740   27.8420 C.3    50  LYS50       0.0271
     41  CG        38.8010   28.3110   27.7550 C.3    50  LYS50       0.0035
     42  CD        38.4000   27.5300   29.0050 C.3    50  LYS50       0.0206
     43  CE        39.5900   27.1600   29.8250 C.3    50  LYS50       0.1093
     44  NZ        39.2220   26.2380   30.9500 N.3    50  LYS50      -0.1314
     45  N         32.5220   23.5590   34.9680 N.3    68  GLU68      -0.1245
     46  CA        33.3520   24.7470   34.8090 C.3    68  GLU68       0.1567
     47  C         32.5110   26.0260   34.8600 C.2    68  GLU68       0.2260
     48  O         32.8740   26.9810   35.5430 O.2    68  GLU68      -0.2867
     49  CB        34.1740   24.6860   33.5140 C.3    68  GLU68       0.0388
     50  CG        35.1090   25.9170   33.3800 C.3    68  GLU68       0.1160
     51  CD        36.2280   25.7660   32.3840 C.2    68  GLU68       0.3649
     52  OE1       36.2230   24.8150   31.5620 O.co2  68  GLU68      -0.2457
     53  OE2       37.1400   26.6160   32.4400 O.co2  68  GLU68      -0.2457
     54  N         31.2910   26.6690   38.4180 N.3    71  LEU71      -0.1231
     55  CA        32.3790   27.1370   39.2670 C.3    71  LEU71       0.1693
     56  C         32.7100   28.6090   39.0660 C.2    71  LEU71       0.2591
     57  O         32.8880   29.3350   40.0560 O.2    71  LEU71      -0.2718
     58  CB        33.6550   26.3140   39.0560 C.3    71  LEU71       0.0284
     59  CG        33.6670   24.8810   39.6070 C.3    71  LEU71       0.0019
     60  CD1       34.7810   24.0980   38.9140 C.3    71  LEU71       0.0001
     61  CD2       33.8150   24.9090   41.1450 C.3    71  LEU71       0.0001
     62  N         32.8550   29.0110   37.7960 N.am   72  LEU72      -0.1980
     63  CA        33.1790   30.3920   37.4290 C.3    72  LEU72       0.1596
     64  C         32.0690   31.3590   37.8030 C.2    72  LEU72       0.2287
     65  O         32.3500   32.4720   38.2380 O.2    72  LEU72      -0.2864
     66  CB        33.5280   30.5130   35.9340 C.3    72  LEU72       0.0297
     67  CG        34.8100   29.7670   35.5490 C.3    72  LEU72       0.0022
     68  CD1       34.9340   29.6200   34.0330 C.3    72  LEU72       0.0001
     69  CD2       36.0260   30.4880   36.1560 C.3    72  LEU72       0.0001
     70  N         39.9470   33.5850   40.0940 N.3    81  ILE81      -0.1245
     71  CA        39.4360   33.9410   38.7720 C.3    81  ILE81       0.1561
     72  C         37.9030   33.8240   38.7680 C.2    81  ILE81       0.2260
     73  O         37.3250   32.9000   39.3450 O.2    81  ILE81      -0.2867
     74  CB        40.1070   33.1130   37.6010 C.3    81  ILE81       0.0252
     75  CG1       40.0280   33.8870   36.2810 C.3    81  ILE81       0.0019
     76  CG2       39.4710   31.7080   37.4340 C.3    81  ILE81       0.0019
     77  CD1       40.8580   35.1720   36.2770 C.3    81  ILE81       0.0001
     78  N         33.9780   31.4250   27.5330 N.3   101  LEU101     -0.1245
     79  CA        34.1200   31.9810   28.8660 C.3   101  LEU101      0.1561
     80  C         35.1010   33.1670   28.8600 C.2   101  LEU101      0.2260
     81  O         36.2230   33.0400   28.3670 O.2   101  LEU101     -0.2867
     82  CB        34.6760   30.8710   29.7810 C.3   101  LEU101      0.0270
     83  CG        33.7990   29.5990   29.8310 C.3   101  LEU101      0.0019
     84  CD1       34.5430   28.4000   30.3790 C.3   101  LEU101      0.0001
     85  CD2       32.5200   29.8720   30.6040 C.3   101  LEU101      0.0001
     86  N         37.2880   35.9690   31.1790 N.3   103  THR103     -0.1203
     87  CA        37.8110   36.3290   32.5060 C.3   103  THR103      0.1994
     88  C         38.8280   37.4720   32.3760 C.2   103  THR103      0.2618
     89  O         39.2250   37.8420   31.2460 O.2   103  THR103     -0.2717
     90  CB        38.5490   35.1420   33.1940 C.3   103  THR103      0.1784
     91  OG1       39.8080   34.9010   32.5410 O.3   103  THR103     -0.2211
     92  CG2       37.7290   33.8420   33.1810 C.3   103  THR103      0.0376
     93  N         39.3070   37.9870   33.5160 N.am  104  HIS104     -0.1961
     94  CA        40.4400   38.8960   33.4640 C.3   104  HIS104      0.1787
     95  C         41.6170   38.1900   32.8500 C.2   104  HIS104      0.2620
     96  O         41.8030   36.9830   33.0080 O.2   104  HIS104     -0.2715
     97  CB        40.8510   39.3900   34.8560 C.3   104  HIS104      0.0785
     98  CG        39.8610   40.3280   35.4640 C.ar  104  HIS104      0.0821
     99  ND1       39.7260   41.6330   35.0440 N.ar  104  HIS104     -0.2267
    100  CD2       38.9380   40.1410   36.4410 C.ar  104  HIS104      0.1154
    101  CE1       38.7510   42.2040   35.7290 C.ar  104  HIS104      0.1986
    102  NE2       38.2640   41.3220   36.5880 N.ar  104  HIS104     -0.2212
    103  N         42.4240   38.9650   32.1580 N.am  105  LEU105     -0.1963
    104  CA        43.6890   38.4740   31.6640 C.3   105  LEU105      0.1728
    105  C         44.7640   39.0890   32.5230 C.2   105  LEU105      0.2616
    106  O         44.8650   40.3050   32.6120 O.2   105  LEU105     -0.2715
    107  CB        43.8860   38.8990   30.2090 C.3   105  LEU105      0.0311
    108  CG        45.2350   38.4810   29.6110 C.3   105  LEU105      0.0022
    109  CD1       45.3010   36.9900   29.4680 C.3   105  LEU105      0.0001
    110  CD2       45.5070   39.1800   28.3050 C.3   105  LEU105      0.0001
    111  N         45.5770   38.2570   33.1610 N.am  106  MET106     -0.1963
    112  CA        46.6900   38.8000   33.9310 C.3   106  MET106      0.1736
    113  C         47.9300   38.7290   33.0320 C.2   106  MET106      0.2617
    114  O         47.9750   37.9430   32.0860 O.2   106  MET106     -0.2715
    115  CB        46.8340   38.0970   35.2950 C.3   106  MET106      0.0427
    116  CG        45.4630   37.8220   35.9840 C.3   106  MET106      0.0599
    117  SD        44.6360   39.1500   36.9090 S.3   106  MET106     -0.1393
    118  CE        45.6510   39.3460   38.3990 C.3   106  MET106      0.0692
    119  N         48.9210   39.5530   33.2840 N.am  107  GLY107     -0.1940
    120  CA        50.0630   39.5940   32.3670 C.3   107  GLY107      0.2014
    121  C         50.9470   38.3610   32.3510 C.2   107  GLY107      0.2639
    122  O         51.6610   38.1280   31.3600 O.2   107  GLY107     -0.2714
    123  N         50.9380   37.5960   33.4440 N.am  108  ALA108     -0.1963
    124  CA        51.8310   36.4350   33.5850 C.3   108  ALA108      0.1728
    125  C         51.3080   35.3590   34.5550 C.2   108  ALA108      0.2616
    126  O         50.3390   35.5800   35.2790 O.2   108  ALA108     -0.2715
    127  CB        53.2330   36.9000   34.0630 C.3   108  ALA108      0.0334
    128  N         51.9750   34.2040   34.5840 N.am  109  ASP109     -0.1971
    129  CA        51.7490   33.2610   35.6620 C.3   109  ASP109      0.1709
    130  C         52.9580   33.2770   36.6000 C.2   109  ASP109      0.2293
    131  O         54.0050   33.8400   36.2770 O.2   109  ASP109     -0.2864
    132  CB        51.3640   31.8470   35.1510 C.3   109  ASP109      0.1436
    133  CG        52.4970   31.1500   34.3740 C.2   109  ASP109      0.3671
    134  OD1       53.5930   30.9650   34.9160 O.co2 109  ASP109     -0.2456
    135  OD2       52.2850   30.7610   33.2200 O.co2 109  ASP109     -0.2456
    136  N         56.4820   31.9750   35.4510 N.3   112  ASN112     -0.1240
    137  CA        57.3620   32.9620   34.8380 C.3   112  ASN112      0.1653
    138  C         57.9340   34.0220   35.8030 C.2   112  ASN112      0.2266
    139  O         59.0860   34.4380   35.6720 O.2   112  ASN112     -0.2867
    140  CB        56.7020   33.5450   33.5860 C.3   112  ASN112      0.1155
    141  CG        56.6710   32.5240   32.4160 C.2   112  ASN112      0.2627
    142  OD1       57.6590   32.3570   31.6900 O.2   112  ASN112     -0.2716
    143  ND2       55.5370   31.8400   32.2450 N.am  112  ASN112     -0.0877
    144  N         47.8930   33.3530   38.3350 N.3   153  ALA153     -0.1245
    145  CA        47.9770   34.4400   37.3740 C.3   153  ALA153      0.1562
    146  C         48.2630   35.7350   38.1310 C.2   153  ALA153      0.2260
    147  O         47.7110   35.9690   39.2090 O.2   153  ALA153     -0.2867
    148  CB        46.6620   34.5480   36.5860 C.3   153  ALA153      0.0290
    149  N         43.6650   30.2370   39.3080 N.3   163  LEU163     -0.1231
    150  CA        42.9590   29.6170   38.1810 C.3   163  LEU163      0.1693
    151  C         42.8240   28.1030   38.3150 C.2   163  LEU163      0.2592
    152  O         43.6290   27.4650   38.9820 O.2   163  LEU163     -0.2718
    153  CB        43.7380   29.8360   36.8660 C.3   163  LEU163      0.0284
    154  CG        44.4790   31.1400   36.5580 C.3   163  LEU163      0.0019
    155  CD1       45.3270   30.9260   35.3140 C.3   163  LEU163      0.0001
    156  CD2       43.4890   32.2890   36.3660 C.3   163  LEU163      0.0001
    157  N         41.8560   27.5420   37.5910 N.am  164  ASP164     -0.1960
    158  CA        41.7950   26.0920   37.3170 C.3   164  ASP164      0.1840
    159  C         41.4280   25.1980   38.5110 C.2   164  ASP164      0.2622
    160  O         41.6590   23.9910   38.4800 O.2   164  ASP164     -0.2715
    161  CB        43.0920   25.5810   36.6510 C.3   164  ASP164      0.1450
    162  CG        43.2180   26.0240   35.2010 C.2   164  ASP164      0.3671
    163  OD1       42.1880   26.4220   34.5750 O.co2 164  ASP164     -0.2456
    164  OD2       44.3510   25.9560   34.6640 O.co2 164  ASP164     -0.2456
    165  N         40.8290   25.7750   39.5330 N.am  165  PHE165     -0.1974
    166  CA        40.3640   25.0010   40.7000 C.3   165  PHE165      0.1639
    167  C         39.1630   24.1310   40.3330 C.2   165  PHE165      0.2290
    168  O         38.4300   24.4450   39.3960 O.2   165  PHE165     -0.2864
    169  CB        39.9480   25.9500   41.8200 C.3   165  PHE165      0.0560
    170  CG        39.1510   27.1150   41.3260 C.ar  165  PHE165     -0.0200
    171  CD1       37.7810   27.0010   41.1370 C.ar  165  PHE165     -0.0042
    172  CD2       39.7860   28.3110   40.9940 C.ar  165  PHE165     -0.0042
    173  CE1       37.0410   28.0560   40.6460 C.ar  165  PHE165     -0.0003
    174  CE2       39.0510   29.3840   40.5030 C.ar  165  PHE165     -0.0003
    175  CZ        37.6820   29.2640   40.3260 C.ar  165  PHE165     -0.0000
    176  N         38.5110   21.4510   38.7840 N.3   167  LEU167     -0.1245
    177  CA        38.3530   20.7740   37.4940 C.3   167  LEU167      0.1561
    178  C         39.1440   19.4680   37.4720 C.2   167  LEU167      0.2260
    179  O         39.0250   18.6690   36.5370 O.2   167  LEU167     -0.2867
    180  CB        38.7920   21.6750   36.3390 C.3   167  LEU167      0.0270
    181  CG        37.8630   22.8020   35.8660 C.3   167  LEU167      0.0019
    182  CD1       38.3560   23.3500   34.5340 C.3   167  LEU167      0.0001
    183  CD2       36.4090   22.3600   35.7360 C.3   167  LEU167      0.0001
@<TRIPOS>BOND
     1     1     2    1
     2    27    26    2
     3    26    25    1
     4     2     3    1
     5     2     5    1
     6    24    25    1
     7     4     3    2
     8     6     5    1
     9     3     8   am
    10    25    28    1
    11     5     7    1
    12    38    39    2
    13    38    37    1
    14     8     9    1
    15    10     9    1
    16    10    11    2
    17    37    36    1
    18    37    40    1
    19    28    29    1
    20    28    30    1
    21    78    79    1
    22    41    40    1
    23    41    42    1
    24    33    32    1
    25    33    34    2
    26   110   108    1
    27    32    31    1
    28    32    35    1
    29    81    80    2
    30    14    15    2
    31    14    13    1
    32    12    13    1
    33    80    79    1
    34    79    82    1
    35    42    43    1
    36   109   108    1
    37    13    16    1
    38   108   107    1
    39    82    83    1
    40    43    44    1
    41    83    84    1
    42    83    85    1
    43    16    17    1
    44   107   104    1
    45    19    17   ar
    46    19    21   ar
    47    17    18   ar
    48    21    22   ar
    49    86    87    1
    50    89    88    2
    51   122   121    2
    52    52    51   ar
    53   104   103    1
    54   104   105    1
    55   142   141    2
    56   114   113    2
    57    18    20   ar
    58   103    95   am
    59   143   141   am
    60    22    20   ar
    61    22    23    1
    62   121   120    1
    63   121   123   am
    64   120   119    1
    65    88    87    1
    66    88    93   am
    67    51    53   ar
    68    51    50    1
    69   141   140    1
    70    87    90    1
    71   105   106    2
    72   105   111   am
    73    91    90    1
    74    95    96    2
    75    95    94    1
    76   113   119   am
    77   113   112    1
    78   111   112    1
    79    92    90    1
    80   135   133   ar
    81    50    49    1
    82   123   124    1
    83    94    93    1
    84    94    97    1
    85    49    46    1
    86   124   127    1
    87   124   125    1
    88   140   137    1
    89   112   115    1
    90    68    67    1
    91   133   134   ar
    92   133   132    1
    93   182   181    1
    94   125   128   am
    95   125   126    2
    96   163   162   ar
    97   128   129    1
    98   164   162   ar
    99    46    47    1
   100    46    45    1
   101   137   136    1
   102   137   138    1
   103    97    98    1
   104    47    48    2
   105    99    98   ar
   106    99   101   ar
   107   132   129    1
   108   162   161    1
   109   115   116    1
   110   155   154    1
   111    98   100   ar
   112    67    66    1
   113    67    69    1
   114   129   130    1
   115   139   138    2
   116   101   102   ar
   117   183   181    1
   118   181   180    1
   119    66    63    1
   120   116   117    1
   121    77    75    1
   122   131   130    2
   123    75    74    1
   124   180   177    1
   125   156   154    1
   126   100   102   ar
   127   179   178    2
   128   154   153    1
   129   148   145    1
   130   161   158    1
   131   153   150    1
   132   117   118    1
   133   158   157    1
   134   158   159    1
   135   145   146    1
   136   145   144    1
   137    63    62    1
   138    63    64    1
   139    76    74    1
   140   178   177    1
   141   177   176    1
   142   157   151   am
   143    74    71    1
   144    62    56   am
   145    64    65    2
   146   146   147    2
   147   150   151    1
   148   150   149    1
   149   151   152    2
   150    54    55    1
   151   160   159    2
   152   159   165   am
   153    72    71    1
   154    72    73    2
   155    71    70    1
   156    60    59    1
   157    58    55    1
   158    58    59    1
   159    56    55    1
   160    56    57    2
   161   168   167    2
   162   165   166    1
   163    59    61    1
   164   175   174   ar
   165   175   173   ar
   166   167   166    1
   167   174   172   ar
   168   173   171   ar
   169   166   169    1
   170   172   170   ar
   171   171   170   ar
   172   170   169    1
