@<TRIPOS>MOLECULE
tmp/3d80A01.pdb
 167 162 0 0 0
SMALL
GASTEIGER

@<TRIPOS>ATOM
      1  N          4.4930    0.8830   10.6400 N.3     7  ILE7       -0.1231
      2  CA         3.9710    2.1430   11.1460 C.3     7  ILE7        0.1692
      3  C          3.3130    1.8900   12.4970 C.2     7  ILE7        0.2592
      4  O          2.5430    0.9360   12.6620 O.2     7  ILE7       -0.2718
      5  CB         3.0320    2.8580   10.1220 C.3     7  ILE7        0.0266
      6  CG1        2.6160    4.2420   10.6340 C.3     7  ILE7        0.0019
      7  CG2        1.8260    1.9950    9.7390 C.3     7  ILE7        0.0020
      8  CD1        2.1350    5.1760    9.5020 C.3     7  ILE7        0.0001
      9  N          3.6250    2.7520   13.4600 N.am    8  VAL8       -0.1966
     10  CA         3.1600    2.5610   14.8410 C.3     8  VAL8        0.1727
     11  C          3.0750    3.9120   15.5520 C.2     8  VAL8        0.2616
     12  O          3.7750    4.8580   15.1520 O.2     8  VAL8       -0.2715
     13  CB         4.1490    1.6230   15.6190 C.3     8  VAL8        0.0290
     14  CG1        5.5530    2.2580   15.7840 C.3     8  VAL8        0.0023
     15  CG2        3.5760    1.1840   16.9740 C.3     8  VAL8        0.0023
     16  N          2.2440    3.9860   16.6000 N.am    9  ALA9       -0.1977
     17  CA         2.2430    5.1250   17.5120 C.3     9  ALA9        0.1597
     18  C          2.6040    4.5310   18.8670 C.2     9  ALA9        0.2287
     19  O          2.0460    3.5030   19.2720 O.2     9  ALA9       -0.2864
     20  CB         0.8780    5.7870   17.5250 C.3     9  ALA9        0.0319
     21  N         -7.0070   -4.4140   24.3170 N.3    20  GLY20      -0.1210
     22  CA        -7.4640   -4.5290   22.9350 C.3    20  GLY20       0.1956
     23  C         -7.8400   -3.2110   22.2730 C.2    20  GLY20       0.2612
     24  O         -8.5220   -3.1940   21.2380 O.2    20  GLY20      -0.2717
     25  N         -7.4260   -2.1070   22.8900 N.am   21  ASP21      -0.1959
     26  CA        -7.5980   -0.7700   22.3290 C.3    21  ASP21       0.1840
     27  C         -6.2910   -0.0050   22.5340 C.2    21  ASP21       0.2621
     28  O         -5.3200   -0.5510   23.0480 O.2    21  ASP21      -0.2715
     29  CB        -8.7730   -0.0510   23.0090 C.3    21  ASP21       0.1450
     30  CG        -9.4380    1.0030   22.1120 C.2    21  ASP21       0.3671
     31  OD1       -8.7410    1.7270   21.3680 O.co2  21  ASP21      -0.2456
     32  OD2      -10.6820    1.1260   22.1630 O.co2  21  ASP21      -0.2456
     33  N         -6.2620    1.2630   22.1330 N.am   22  LEU22      -0.1977
     34  CA        -5.0670    2.0910   22.3250 C.3    22  LEU22       0.1596
     35  C         -4.9930    2.6390   23.7670 C.2    22  LEU22       0.2287
     36  O         -6.0270    2.7240   24.4410 O.2    22  LEU22      -0.2864
     37  CB        -5.0420    3.2250   21.2920 C.3    22  LEU22       0.0297
     38  CG        -5.1170    2.7920   19.8180 C.3    22  LEU22       0.0022
     39  CD1       -5.2400    3.9980   18.9120 C.3    22  LEU22       0.0001
     40  CD2       -3.9320    1.9330   19.4080 C.3    22  LEU22       0.0001
     41  N         -4.1720    5.6590   24.8000 N.3    24  TRP24      -0.1241
     42  CA        -4.5820    7.0750   24.8440 C.3    24  TRP24       0.1605
     43  C         -5.9840    7.2630   24.2770 C.2    24  TRP24       0.2264
     44  O         -6.4770    6.4150   23.5190 O.2    24  TRP24      -0.2867
     45  CB        -3.5930    7.9530   24.0440 C.3    24  TRP24       0.0550
     46  CG        -3.1670    7.3160   22.7520 C.ar   24  TRP24       0.0003
     47  CD1       -3.7910    7.4090   21.5360 C.ar   24  TRP24       0.0946
     48  CD2       -2.0480    6.4600   22.5640 C.ar   24  TRP24       0.0152
     49  NE1       -3.1150    6.6540   20.6010 N.ar   24  TRP24      -0.2442
     50  CE2       -2.0400    6.0640   21.2060 C.ar   24  TRP24       0.0810
     51  CE3       -1.0360    5.9990   23.4080 C.ar   24  TRP24       0.0012
     52  CZ2       -1.0620    5.2090   20.6720 C.ar   24  TRP24       0.0191
     53  CZ3       -0.0670    5.1480   22.8790 C.ar   24  TRP24       0.0001
     54  CH2       -0.0860    4.7750   21.5170 C.ar   24  TRP24       0.0015
     55  N         -3.6550   12.1520   14.5750 N.3    30  GLU30      -0.1231
     56  CA        -2.6520   11.1010   14.4570 C.3    30  GLU30       0.1699
     57  C         -3.1610   10.0360   13.4930 C.2    30  GLU30       0.2592
     58  O         -2.3970    9.5290   12.6480 O.2    30  GLU30      -0.2718
     59  CB        -2.3060   10.4840   15.8290 C.3    30  GLU30       0.0402
     60  CG        -0.8800    9.8800   15.9020 C.3    30  GLU30       0.1161
     61  CD        -0.7430    8.5510   15.1690 C.2    30  GLU30       0.3649
     62  OE1        0.2730    8.3650   14.4650 O.co2  30  GLU30      -0.2457
     63  OE2       -1.6270    7.7030   15.3140 O.co2  30  GLU30      -0.2457
     64  N         -4.4220    9.6640   13.6150 N.am   31  PHE31      -0.1976
     65  CA        -5.0860    8.7370   12.7010 C.3    31  PHE31       0.1639
     66  C         -5.0380    9.2430   11.2430 C.2    31  PHE31       0.2290
     67  O         -4.8700    8.4660   10.3770 O.2    31  PHE31      -0.2864
     68  CB        -6.5870    8.4540   13.0180 C.3    31  PHE31       0.0560
     69  CG        -6.9210    7.7400   14.3180 C.ar   31  PHE31      -0.0200
     70  CD1       -6.0430    6.9870   15.0150 C.ar   31  PHE31      -0.0042
     71  CD2       -8.2070    7.8560   14.8150 C.ar   31  PHE31      -0.0042
     72  CE1       -6.4270    6.3570   16.1890 C.ar   31  PHE31      -0.0003
     73  CE2       -8.5550    7.2530   15.9580 C.ar   31  PHE31      -0.0003
     74  CZ        -7.6690    6.5080   16.6360 C.ar   31  PHE31      -0.0000
     75  N         -2.7460   10.9390    9.8320 N.3    33  TYR33      -0.1227
     76  CA        -1.3850   10.6650    9.3560 C.3    33  TYR33       0.1736
     77  C         -1.2410    9.1930    9.0130 C.2    33  TYR33       0.2595
     78  O         -0.7330    8.8470    7.9500 O.2    33  TYR33      -0.2718
     79  CB        -0.3480   11.0540   10.4260 C.3    33  TYR33       0.0548
     80  CG         1.0940   10.6760   10.1000 C.ar   33  TYR33      -0.0200
     81  CD1        1.6880    9.5400   10.6660 C.ar   33  TYR33      -0.0009
     82  CD2        1.8530   11.4520    9.2170 C.ar   33  TYR33      -0.0009
     83  CE1        3.0130    9.1800   10.3530 C.ar   33  TYR33       0.0417
     84  CE2        3.1960   11.1150    8.9120 C.ar   33  TYR33       0.0417
     85  CZ         3.7560    9.9710    9.4940 C.ar   33  TYR33       0.1957
     86  OH         5.0540    9.6530    9.1830 O.3    33  TYR33      -0.2866
     87  N         -1.6370    8.3120    9.9310 N.am   34  PHE34      -0.1976
     88  CA        -1.6860    6.8810    9.6210 C.3    34  PHE34       0.1639
     89  C         -2.4240    6.5950    8.2970 C.2    34  PHE34       0.2290
     90  O         -1.9200    5.8200    7.4520 O.2    34  PHE34      -0.2864
     91  CB        -2.3770    6.1270   10.7600 C.3    34  PHE34       0.0560
     92  CG        -2.6780    4.6820   10.4500 C.ar   34  PHE34      -0.0200
     93  CD1       -1.6790    3.7090   10.5490 C.ar   34  PHE34      -0.0042
     94  CD2       -3.9460    4.3020   10.0150 C.ar   34  PHE34      -0.0042
     95  CE1       -1.9450    2.3860   10.2640 C.ar   34  PHE34      -0.0003
     96  CE2       -4.2360    2.9680    9.7250 C.ar   34  PHE34      -0.0003
     97  CZ        -3.2290    2.0040    9.8440 C.ar   34  PHE34      -0.0000
     98  N         -5.5590   -7.1930   16.0640 N.3    56  THR56      -0.1218
     99  CA        -5.6870   -5.8520   15.5030 C.3    56  THR56       0.1862
    100  C         -6.8650   -5.7700   14.5090 C.2    56  THR56       0.2287
    101  O         -7.6740   -4.8340   14.6030 O.2    56  THR56      -0.2866
    102  CB        -4.3590   -5.3950   14.8700 C.3    56  THR56       0.1770
    103  OG1       -3.3550   -5.2720   15.8980 O.3    56  THR56      -0.2211
    104  CG2       -4.5070   -4.0450   14.1630 C.3    56  THR56       0.0375
    105  N        -10.1440   -5.6140   16.3270 N.3    59  SER59      -0.1202
    106  CA       -10.2340   -4.4750   17.2310 C.3    59  SER59       0.2020
    107  C        -10.4890   -3.1670   16.4700 C.2    59  SER59       0.2619
    108  O        -10.9980   -2.1950   17.0460 O.2    59  SER59      -0.2717
    109  CB        -8.9890   -4.4080   18.1230 C.3    59  SER59       0.2103
    110  OG        -9.0340   -5.4430   19.0890 O.3    59  SER59      -0.2182
    111  N        -10.1690   -3.1300   15.1810 N.am   60  ILE60      -0.1966
    112  CA       -10.5630   -2.0050   14.3250 C.3    60  ILE60       0.1712
    113  C        -12.0970   -1.9350   14.2250 C.2    60  ILE60       0.2458
    114  O        -12.7400   -2.9500   13.9990 O.2    60  ILE60      -0.2730
    115  CB        -9.9480   -2.1200   12.9170 C.3    60  ILE60       0.0289
    116  CG1       -8.4190   -2.0450   13.0190 C.3    60  ILE60       0.0022
    117  CG2      -10.5470   -1.0590   11.9680 C.3    60  ILE60       0.0023
    118  CD1       -7.7010   -2.3570   11.7360 C.3    60  ILE60       0.0001
    119  N        -12.6930   -0.7460   14.4380 N.am   61  PRO61      -0.2727
    120  CA       -14.1540   -0.6800   14.3100 C.3    61  PRO61       0.1402
    121  C        -14.6800   -1.3060   13.0150 C.2    61  PRO61       0.2269
    122  O        -14.1420   -1.0480   11.9370 O.2    61  PRO61      -0.2865
    123  CB       -14.4260    0.8250   14.3300 C.3    61  PRO61       0.0296
    124  CG       -13.3630    1.3690   15.2080 C.3    61  PRO61       0.0237
    125  CD       -12.1240    0.5530   14.8430 C.3    61  PRO61       0.0939
    126  N        -15.1190    0.5260    9.7950 N.3    64  ASN64      -0.1240
    127  CA       -13.8970    0.9640    9.1100 C.3    64  ASN64       0.1653
    128  C        -13.0590   -0.1630    8.4950 C.2    64  ASN64       0.2266
    129  O        -11.9120    0.0640    8.0810 O.2    64  ASN64      -0.2867
    130  CB       -13.0420    1.7760   10.0760 C.3    64  ASN64       0.1155
    131  CG       -13.7040    3.0750   10.4960 C.2    64  ASN64       0.2627
    132  OD1      -14.3590    3.7410    9.6920 O.2    64  ASN64      -0.2716
    133  ND2      -13.5360    3.4370   11.7550 N.am   64  ASN64      -0.0877
    134  N         -9.5780   -1.6210    5.8980 N.3    67  LEU67      -0.1245
    135  CA        -9.0070   -0.2830    5.7480 C.3    67  LEU67       0.1561
    136  C         -9.1740    0.1420    4.2800 C.2    67  LEU67       0.2260
    137  O         -8.6770   -0.5220    3.3650 O.2    67  LEU67      -0.2867
    138  CB        -7.5470   -0.2400    6.2290 C.3    67  LEU67       0.0270
    139  CG        -7.3690   -0.4200    7.7380 C.3    67  LEU67       0.0019
    140  CD1       -5.8890   -0.3600    8.1030 C.3    67  LEU67       0.0001
    141  CD2       -8.2000    0.6100    8.4920 C.3    67  LEU67       0.0001
    142  N          0.9890   -2.8470   10.1050 N.3   115  VAL115     -0.1245
    143  CA         0.2540   -1.8860   10.9230 C.3   115  VAL115      0.1561
    144  C         -0.0730   -2.3590   12.3470 C.2   115  VAL115      0.2260
    145  O         -0.8080   -1.6900   13.0700 O.2   115  VAL115     -0.2867
    146  CB        -1.0160   -1.3630   10.1990 C.3   115  VAL115      0.0252
    147  CG1       -0.6550   -0.7620    8.8410 C.3   115  VAL115      0.0019
    148  CG2       -2.0930   -2.4470   10.0340 C.3   115  VAL115      0.0019
    149  N          5.0440   -6.6820   14.6330 N.3   121  TYR121     -0.1241
    150  CA         6.1970   -5.7750   14.6120 C.3   121  TYR121      0.1605
    151  C          7.4870   -6.5260   14.9590 C.2   121  TYR121      0.2264
    152  O          8.4990   -6.3700   14.2660 O.2   121  TYR121     -0.2867
    153  CB         6.0090   -4.6570   15.6240 C.3   121  TYR121      0.0534
    154  CG         4.9270   -3.6460   15.3050 C.ar  121  TYR121     -0.0201
    155  CD1        4.0590   -3.2320   16.2990 C.ar  121  TYR121     -0.0009
    156  CD2        4.7820   -3.1070   14.0250 C.ar  121  TYR121     -0.0009
    157  CE1        3.0590   -2.2840   16.0350 C.ar  121  TYR121      0.0417
    158  CE2        3.7750   -2.1410   13.7470 C.ar  121  TYR121      0.0417
    159  CZ         2.9330   -1.7520   14.7670 C.ar  121  TYR121      0.1957
    160  OH         1.9320   -0.8280   14.5700 O.3   121  TYR121     -0.2866
    161  N          5.3670    7.2600   15.4480 N.3   136  THR136     -0.1218
    162  CA         4.8160    8.4560   16.0880 C.3   136  THR136      0.1862
    163  C          5.1630    8.3870   17.5610 C.2   136  THR136      0.2287
    164  O          4.7030    7.4920   18.2600 O.2   136  THR136     -0.2866
    165  CB         3.2980    8.5520   15.9400 C.3   136  THR136      0.1770
    166  OG1        2.9820    8.6270   14.5490 O.3   136  THR136     -0.2211
    167  CG2        2.7800    9.8240   16.6390 C.3   136  THR136      0.0375
@<TRIPOS>BOND
     1   137   136    2
     2   136   135    1
     3   135   134    1
     4   135   138    1
     5   138   139    1
     6    90    89    2
     7   139   140    1
     8   139   141    1
     9    78    77    2
    10   129   128    2
    11    89    88    1
    12   128   127    1
    13   147   146    1
    14    84    82   ar
    15    84    85   ar
    16    77    76    1
    17    77    87   am
    18   127   126    1
    19   127   130    1
    20    86    85    1
    21    82    80   ar
    22    76    75    1
    23    76    79    1
    24    85    83   ar
    25     8     6    1
    26    88    87    1
    27    88    91    1
    28   132   131    2
    29    96    97   ar
    30    96    94   ar
    31     7     5    1
    32    97    95   ar
    33    94    92   ar
    34   148   146    1
    35   130   131    1
    36    80    79    1
    37    80    81   ar
    38   142   143    1
    39     5     6    1
    40     5     2    1
    41   146   143    1
    42    95    93   ar
    43    83    81   ar
    44    67    66    2
    45    92    93   ar
    46    92    91    1
    47   131   133   am
    48     1     2    1
    49   143   144    1
    50     2     3    1
    51    66    65    1
    52   118   116    1
    53   122   121    2
    54   117   115    1
    55   144   145    2
    56     3     4    2
    57     3     9   am
    58    58    57    2
    59    65    68    1
    60    65    64    1
    61   115   116    1
    62   115   112    1
    63   121   120    1
    64    68    69    1
    65     9    10    1
    66    57    64   am
    67    57    56    1
    68   158   156   ar
    69   158   159   ar
    70   114   113    2
    71   156   154   ar
    72   104   102    1
    73   113   112    1
    74   113   119   am
    75   152   151    2
    76   120   123    1
    77   120   119    1
    78    69    71   ar
    79    69    70   ar
    80   112   111    1
    81   123   124    1
    82   119   125    1
    83    56    55    1
    84    56    59    1
    85    62    61   ar
    86   100   101    2
    87   100    99    1
    88   166   165    1
    89   160   159    1
    90   150   149    1
    91   150   151    1
    92   150   153    1
    93   159   157   ar
    94    71    73   ar
    95    10    11    1
    96    10    13    1
    97   125   124    1
    98   102    99    1
    99   102   103    1
   100    70    72   ar
   101    12    11    2
   102    61    63   ar
   103    61    60    1
   104   111   107   am
   105   154   153    1
   106   154   155   ar
   107   161   162    1
   108    99    98    1
   109    11    16   am
   110    13    14    1
   111    13    15    1
   112    59    60    1
   113   165   162    1
   114   165   167    1
   115    73    74   ar
   116   157   155   ar
   117   162   163    1
   118    72    74   ar
   119   105   106    1
   120   107   108    2
   121   107   106    1
   122    16    17    1
   123   106   109    1
   124    17    20    1
   125    17    18    1
   126   163   164    2
   127   109   110    1
   128    18    19    2
   129    39    38    1
   130    40    38    1
   131    38    37    1
   132    49    50   ar
   133    49    47   ar
   134    52    50   ar
   135    52    54   ar
   136    50    48   ar
   137    24    23    2
   138    37    34    1
   139    31    30   ar
   140    54    53   ar
   141    47    46   ar
   142    30    32   ar
   143    30    29    1
   144    33    34    1
   145    33    27   am
   146    23    25   am
   147    23    22    1
   148    34    35    1
   149    26    27    1
   150    26    25    1
   151    26    29    1
   152    27    28    2
   153    48    46   ar
   154    48    51   ar
   155    46    45    1
   156    53    51   ar
   157    22    21    1
   158    44    43    2
   159    35    36    2
   160    45    42    1
   161    43    42    1
   162    41    42    1
