@<TRIPOS>MOLECULE
tmp/3d83A00.pdb
 195 183 0 0 0
SMALL
GASTEIGER

@<TRIPOS>ATOM
      1  N         46.9170   32.5930   22.8560 N.3    27  VAL27      -0.1245
      2  CA        47.9340   32.4420   23.9190 C.3    27  VAL27       0.1561
      3  C         48.0610   31.0350   24.5370 C.2    27  VAL27       0.2260
      4  O         48.9790   30.7990   25.3270 O.2    27  VAL27      -0.2867
      5  CB        47.8330   33.5380   25.0440 C.3    27  VAL27       0.0252
      6  CG1       48.3000   34.8980   24.5280 C.3    27  VAL27       0.0019
      7  CG2       46.4240   33.6340   25.6250 C.3    27  VAL27       0.0019
      8  N         42.7910   29.4500   24.2990 N.3    35  VAL35      -0.1245
      9  CA        42.7140   30.7720   24.9250 C.3    35  VAL35       0.1561
     10  C         43.2670   31.8690   24.0050 C.2    35  VAL35       0.2260
     11  O         44.2970   31.6770   23.3570 O.2    35  VAL35      -0.2867
     12  CB        43.4280   30.8100   26.3370 C.3    35  VAL35       0.0252
     13  CG1       43.1300   32.1160   27.0700 C.3    35  VAL35       0.0019
     14  CG2       43.0080   29.6010   27.2270 C.3    35  VAL35       0.0019
     15  N         41.3540   37.6250   29.0860 N.3    48  ALA48      -0.1231
     16  CA        41.5800   36.2970   28.5000 C.3    48  ALA48       0.1694
     17  C         40.2080   35.7100   28.1500 C.2    48  ALA48       0.2592
     18  O         39.2570   35.8180   28.9570 O.2    48  ALA48      -0.2718
     19  CB        42.3040   35.3830   29.4850 C.3    48  ALA48       0.0304
     20  N         40.0910   35.1300   26.9580 N.am   49  VAL49      -0.1966
     21  CA        38.8550   34.4690   26.5140 C.3    49  VAL49       0.1727
     22  C         39.1520   32.9890   26.2410 C.2    49  VAL49       0.2616
     23  O         39.9620   32.6840   25.3750 O.2    49  VAL49      -0.2715
     24  CB        38.2590   35.1270   25.2210 C.3    49  VAL49       0.0290
     25  CG1       36.8480   34.5470   24.9030 C.3    49  VAL49       0.0023
     26  CG2       38.1890   36.6960   25.3460 C.3    49  VAL49       0.0023
     27  N         38.4900   32.0890   26.9740 N.am   50  LYS50      -0.1977
     28  CA        38.6520   30.6630   26.7860 C.3    50  LYS50       0.1596
     29  C         37.4280   30.0400   26.0670 C.2    50  LYS50       0.2287
     30  O         36.3110   30.0880   26.5640 O.2    50  LYS50      -0.2864
     31  CB        38.9570   29.9190   28.1170 C.3    50  LYS50       0.0298
     32  CG        39.2150   28.4040   27.9010 C.3    50  LYS50       0.0038
     33  CD        39.8480   27.6480   29.0930 C.3    50  LYS50       0.0206
     34  CE        38.9910   27.6720   30.3620 C.3    50  LYS50       0.1093
     35  NZ        39.4960   26.6640   31.4000 N.3    50  LYS50      -0.1314
     36  N         33.0420   23.7860   35.9000 N.3    68  GLU68      -0.1245
     37  CA        33.8550   25.0070   35.7780 C.3    68  GLU68       0.1567
     38  C         33.0040   26.2740   35.7670 C.2    68  GLU68       0.2260
     39  O         33.3730   27.2950   36.3780 O.2    68  GLU68      -0.2867
     40  CB        34.7340   24.9860   34.5160 C.3    68  GLU68       0.0388
     41  CG        35.7690   26.1310   34.5170 C.3    68  GLU68       0.1160
     42  CD        36.8030   26.0360   33.4170 C.2    68  GLU68       0.3649
     43  OE1       36.6620   25.1530   32.5250 O.co2  68  GLU68      -0.2457
     44  OE2       37.7700   26.8540   33.4370 O.co2  68  GLU68      -0.2457
     45  N         31.7560   26.9960   39.3290 N.3    71  LEU71      -0.1231
     46  CA        32.8370   27.4540   40.1730 C.3    71  LEU71       0.1693
     47  C         33.2210   28.9080   39.8430 C.2    71  LEU71       0.2591
     48  O         33.4090   29.7310   40.7420 O.2    71  LEU71      -0.2718
     49  CB        34.0470   26.5090   40.0200 C.3    71  LEU71       0.0284
     50  CG        34.9600   26.2650   41.2200 C.3    71  LEU71       0.0019
     51  CD1       34.2490   25.5550   42.3750 C.3    71  LEU71       0.0001
     52  CD2       36.1900   25.4710   40.7990 C.3    71  LEU71       0.0001
     53  N         33.3680   29.2380   38.5600 N.am   72  LEU72      -0.1980
     54  CA        33.7870   30.6050   38.2340 C.3    72  LEU72       0.1596
     55  C         32.7170   31.6590   38.5520 C.2    72  LEU72       0.2287
     56  O         33.0590   32.7880   38.9500 O.2    72  LEU72      -0.2864
     57  CB        34.2730   30.6880   36.7750 C.3    72  LEU72       0.0297
     58  CG        35.5110   29.7860   36.4950 C.3    72  LEU72       0.0022
     59  CD1       35.7300   29.6370   35.0100 C.3    72  LEU72       0.0001
     60  CD2       36.7730   30.2160   37.1910 C.3    72  LEU72       0.0001
     61  N         33.0900   32.3570   42.5280 N.3    75  MET75      -0.1245
     62  CA        34.2800   32.9640   43.1500 C.3    75  MET75       0.1570
     63  C         34.3470   34.4610   43.0230 C.2    75  MET75       0.2261
     64  O         34.5560   34.9870   41.9250 O.2    75  MET75      -0.2867
     65  CB        35.6040   32.4260   42.5690 C.3    75  MET75       0.0387
     66  CG        35.5850   30.9680   42.2150 C.3    75  MET75       0.0595
     67  SD        36.5680   29.8990   43.2490 S.3    75  MET75      -0.1393
     68  CE        35.6450   30.1300   44.7240 C.3    75  MET75       0.0692
     69  N         41.5550   35.6050   44.0280 N.3    80  VAL80      -0.1231
     70  CA        41.0110   34.4290   43.3400 C.3    80  VAL80       0.1692
     71  C         40.4690   34.8600   41.9930 C.2    80  VAL80       0.2591
     72  O         39.7760   35.8750   41.8880 O.2    80  VAL80      -0.2718
     73  CB        39.9190   33.6740   44.1420 C.3    80  VAL80       0.0266
     74  CG1       39.4400   32.4280   43.3810 C.3    80  VAL80       0.0020
     75  CG2       40.4240   33.2980   45.5860 C.3    80  VAL80       0.0020
     76  N         40.7800   34.1060   40.9400 N.am   81  ILE81      -0.1980
     77  CA        40.2050   34.4540   39.6300 C.3    81  ILE81       0.1595
     78  C         38.6580   34.5560   39.6830 C.2    81  ILE81       0.2287
     79  O         37.9770   33.6960   40.2870 O.2    81  ILE81      -0.2864
     80  CB        40.6630   33.4470   38.5280 C.3    81  ILE81       0.0276
     81  CG1       40.2950   33.9690   37.1380 C.3    81  ILE81       0.0022
     82  CG2       40.0460   32.0600   38.7560 C.3    81  ILE81       0.0022
     83  CD1       41.2780   35.0020   36.6120 C.3    81  ILE81       0.0001
     84  N         34.4180   31.6050   28.1220 N.3   101  LEU101     -0.1245
     85  CA        34.6020   32.2270   29.4390 C.3   101  LEU101      0.1561
     86  C         35.6040   33.3910   29.3540 C.2   101  LEU101      0.2260
     87  O         36.6640   33.2480   28.7460 O.2   101  LEU101     -0.2867
     88  CB        35.1220   31.1940   30.4520 C.3   101  LEU101      0.0270
     89  CG        34.3370   29.8850   30.6600 C.3   101  LEU101      0.0019
     90  CD1       35.1200   28.8390   31.4930 C.3   101  LEU101      0.0001
     91  CD2       32.9750   30.1850   31.3100 C.3   101  LEU101      0.0001
     92  N         37.9060   36.2770   31.5840 N.3   103  THR103     -0.1218
     93  CA        38.4720   36.7190   32.8650 C.3   103  THR103      0.1862
     94  C         39.5380   37.8230   32.6280 C.2   103  THR103      0.2287
     95  O         39.8740   38.1210   31.4800 O.2   103  THR103     -0.2866
     96  CB        39.2050   35.5710   33.5910 C.3   103  THR103      0.1770
     97  OG1       40.4130   35.2560   32.8910 O.3   103  THR103     -0.2211
     98  CG2       38.3290   34.3050   33.7300 C.3   103  THR103      0.0375
     99  N         43.1370   39.2110   32.0920 N.3   105  LEU105     -0.1231
    100  CA        44.3020   38.5870   31.4860 C.3   105  LEU105      0.1693
    101  C         45.3800   38.5320   32.5470 C.2   105  LEU105      0.2592
    102  O         45.7570   39.5630   33.1360 O.2   105  LEU105     -0.2718
    103  CB        44.8010   39.3510   30.2690 C.3   105  LEU105      0.0284
    104  CG        46.0610   38.8750   29.5170 C.3   105  LEU105      0.0019
    105  CD1       45.8830   37.4950   28.8830 C.3   105  LEU105      0.0001
    106  CD2       46.4250   39.8740   28.4630 C.3   105  LEU105      0.0001
    107  N         45.8840   37.3200   32.7440 N.am  106  MET106     -0.1965
    108  CA        46.7820   36.9970   33.8450 C.3   106  MET106      0.1736
    109  C         48.1480   36.7710   33.2640 C.2   106  MET106      0.2617
    110  O         48.5880   35.6140   33.2060 O.2   106  MET106     -0.2715
    111  CB        46.2820   35.7220   34.5210 C.3   106  MET106      0.0427
    112  CG        44.8040   35.7780   34.8360 C.3   106  MET106      0.0599
    113  SD        44.4210   36.5570   36.4180 S.3   106  MET106     -0.1393
    114  CE        45.2190   38.1590   36.4150 C.3   106  MET106      0.0692
    115  N         48.8010   37.8690   32.8430 N.am  107  GLY107     -0.1955
    116  CA        50.0070   37.8470   31.9970 C.3   107  GLY107      0.1869
    117  C         51.3950   37.4660   32.5430 C.2   107  GLY107      0.2309
    118  O         52.3230   37.2350   31.7560 O.2   107  GLY107     -0.2863
    119  N         38.4570   30.0880   49.4800 N.3   137  ILE137     -0.1245
    120  CA        38.0800   28.9280   48.6740 C.3   137  ILE137      0.1561
    121  C         37.6770   27.7460   49.5990 C.2   137  ILE137      0.2260
    122  O         36.6180   27.1390   49.4320 O.2   137  ILE137     -0.2867
    123  CB        39.2670   28.5660   47.7390 C.3   137  ILE137      0.0252
    124  CG1       39.3010   29.5390   46.5460 C.3   137  ILE137      0.0019
    125  CG2       39.2010   27.1320   47.1990 C.3   137  ILE137      0.0019
    126  CD1       40.7760   29.8350   46.1430 C.3   137  ILE137      0.0001
    127  N         35.7700   24.0480   48.6020 N.3   142  ILE142     -0.1231
    128  CA        36.3790   23.8740   47.3010 C.3   142  ILE142      0.1692
    129  C         37.8310   23.5690   47.5960 C.2   142  ILE142      0.2592
    130  O         38.4480   24.2450   48.4070 O.2   142  ILE142     -0.2718
    131  CB        36.2370   25.1390   46.4000 C.3   142  ILE142      0.0266
    132  CG1       34.7700   25.3570   46.0500 C.3   142  ILE142      0.0019
    133  CG2       37.0450   24.9530   45.0900 C.3   142  ILE142      0.0020
    134  CD1       34.3340   26.8250   45.6990 C.3   142  ILE142      0.0001
    135  N         38.3580   22.5160   46.9810 N.am  143  ILE143     -0.1966
    136  CA        39.7670   22.1570   47.1380 C.3   143  ILE143      0.1727
    137  C         40.4680   22.4050   45.7950 C.2   143  ILE143      0.2616
    138  O         39.9680   21.9930   44.7490 O.2   143  ILE143     -0.2715
    139  CB        39.9480   20.6690   47.5480 C.3   143  ILE143      0.0290
    140  CG1       39.0420   20.3170   48.7580 C.3   143  ILE143      0.0022
    141  CG2       41.3920   20.3630   47.8690 C.3   143  ILE143      0.0023
    142  CD1       39.1180   18.8220   49.1190 C.3   143  ILE143      0.0001
    143  N         41.6110   23.0750   45.8070 N.am  144  HIS144     -0.1973
    144  CA        42.3050   23.3180   44.5160 C.3   144  HIS144      0.1656
    145  C         42.9620   22.0320   43.9630 C.2   144  HIS144      0.2291
    146  O         42.7010   21.6090   42.8120 O.2   144  HIS144     -0.2864
    147  CB        43.3140   24.4630   44.6770 C.3   144  HIS144      0.0771
    148  CG        43.8370   24.9850   43.3750 C.ar  144  HIS144      0.0820
    149  ND1       44.6610   24.2450   42.5590 N.ar  144  HIS144     -0.2267
    150  CD2       43.6410   26.1690   42.7430 C.ar  144  HIS144      0.1154
    151  CE1       44.9530   24.9450   41.4760 C.ar  144  HIS144      0.1986
    152  NE2       44.3610   26.1240   41.5700 N.ar  144  HIS144     -0.2212
    153  N         44.8640   33.3360   42.5590 N.3   161  ILE161     -0.1231
    154  CA        44.8570   31.8750   42.3600 C.3   161  ILE161      0.1692
    155  C         43.9510   31.5010   41.2040 C.2   161  ILE161      0.2592
    156  O         42.7770   31.8730   41.1800 O.2   161  ILE161     -0.2718
    157  CB        44.3140   31.1310   43.6350 C.3   161  ILE161      0.0266
    158  CG1       45.1770   31.4610   44.8560 C.3   161  ILE161      0.0019
    159  CG2       44.3390   29.5930   43.4330 C.3   161  ILE161      0.0020
    160  CD1       44.5500   30.9390   46.2040 C.3   161  ILE161      0.0001
    161  N         44.4880   30.7570   40.2400 N.am  162  LEU162     -0.1966
    162  CA        43.6690   30.1970   39.1610 C.3   162  LEU162      0.1728
    163  C         44.0450   28.7510   38.8540 C.2   162  LEU162      0.2616
    164  O         44.7310   28.1030   39.6450 O.2   162  LEU162     -0.2715
    165  CB        43.6890   31.0850   37.8980 C.3   162  LEU162      0.0311
    166  CG        44.9390   31.3470   37.0680 C.3   162  LEU162      0.0022
    167  CD1       44.5130   31.5690   35.5870 C.3   162  LEU162      0.0001
    168  CD2       45.7180   32.5420   37.6440 C.3   162  LEU162      0.0001
    169  N         43.5260   28.2400   37.7410 N.am  163  ASP163     -0.1957
    170  CA        43.9450   26.9750   37.1860 C.3   163  ASP163      0.1840
    171  C         44.0000   27.0810   35.6580 C.2   163  ASP163      0.2622
    172  O         42.9450   27.1460   34.9810 O.2   163  ASP163     -0.2715
    173  CB        43.0270   25.8230   37.6280 C.3   163  ASP163      0.1450
    174  CG        43.6420   24.4370   37.3620 C.2   163  ASP163      0.3671
    175  OD1       44.3420   24.2560   36.3340 O.co2 163  ASP163     -0.2456
    176  OD2       43.4270   23.5410   38.2130 O.co2 163  ASP163     -0.2456
    177  N         45.2370   27.0950   35.1260 N.am  164  PHE164     -0.1974
    178  CA        45.4940   27.3030   33.6880 C.3   164  PHE164      0.1639
    179  C         45.3770   26.0070   32.9030 C.2   164  PHE164      0.2290
    180  O         45.4970   26.0370   31.6830 O.2   164  PHE164     -0.2864
    181  CB        46.9230   27.7720   33.4270 C.3   164  PHE164      0.0560
    182  CG        47.1990   29.2170   33.7400 C.ar  164  PHE164     -0.0200
    183  CD1       46.9650   30.2180   32.7860 C.ar  164  PHE164     -0.0042
    184  CD2       47.7990   29.5650   34.9470 C.ar  164  PHE164     -0.0042
    185  CE1       47.2660   31.5760   33.0590 C.ar  164  PHE164     -0.0003
    186  CE2       48.1030   30.9040   35.2490 C.ar  164  PHE164     -0.0003
    187  CZ        47.8310   31.9220   34.2840 C.ar  164  PHE164     -0.0000
    188  N         44.6260   23.1490   30.6110 N.3   166  LEU166     -0.1245
    189  CA        43.7660   23.0400   29.4370 C.3   166  LEU166      0.1561
    190  C         43.6800   21.5830   29.0020 C.2   166  LEU166      0.2260
    191  O         43.1910   21.2800   27.9160 O.2   166  LEU166     -0.2867
    192  CB        44.2820   23.9220   28.2850 C.3   166  LEU166      0.0270
    193  CG        44.3190   25.4500   28.4090 C.3   166  LEU166      0.0019
    194  CD1       44.8890   26.0910   27.1600 C.3   166  LEU166      0.0001
    195  CD2       42.9310   26.0040   28.6730 C.3   166  LEU166      0.0001
@<TRIPOS>BOND
     1     1     2    1
     2    11    10    2
     3     2     3    1
     4     2     5    1
     5    10     9    1
     6     8     9    1
     7     6     5    1
     8     3     4    2
     9    25    24    1
    10     9    12    1
    11     5     7    1
    12    24    26    1
    13    24    21    1
    14    23    22    2
    15    29    30    2
    16    29    28    1
    17    22    21    1
    18    22    27   am
    19    12    13    1
    20    12    14    1
    21    21    20    1
    22    28    27    1
    23    28    31    1
    24    20    17   am
    25   194   193    1
    26    32    31    1
    27    32    33    1
    28   191   190    2
    29    84    85    1
    30    17    16    1
    31    17    18    2
    32   192   193    1
    33   192   189    1
    34   193   195    1
    35   106   104    1
    36    16    15    1
    37    16    19    1
    38    87    86    2
    39   105   104    1
    40   190   189    1
    41    33    34    1
    42    86    85    1
    43   189   188    1
    44    85    88    1
    45   104   103    1
    46   103   100    1
    47    34    35    1
    48    88    89    1
    49    89    91    1
    50    89    90    1
    51    95    94    2
    52   100    99    1
    53   100   101    1
    54    92    93    1
    55   180   179    2
    56   118   117    2
    57   116   117    1
    58   116   115    1
    59    43    42   ar
    60   101   107   am
    61   101   102    2
    62    94    93    1
    63   107   108    1
    64   183   185   ar
    65   183   182   ar
    66   115   109   am
    67    93    96    1
    68    97    96    1
    69   179   178    1
    70   185   187   ar
    71   110   109    2
    72   109   108    1
    73    42    44   ar
    74    42    41    1
    75   181   178    1
    76   181   182    1
    77    96    98    1
    78   178   177    1
    79   182   184   ar
    80   108   111    1
    81   187   186   ar
    82    40    41    1
    83    40    37    1
    84   111   112    1
    85   112   113    1
    86   184   186   ar
    87   172   171    2
    88    59    58    1
    89   177   171   am
    90   167   166    1
    91   171   170    1
    92    38    37    1
    93    38    39    2
    94    37    36    1
    95   175   174   ar
    96   114   113    1
    97    58    57    1
    98    58    60    1
    99    83    81    1
   100    57    54    1
   101   166   168    1
   102   166   165    1
   103    81    80    1
   104   170   173    1
   105   170   169    1
   106   174   173    1
   107   174   176   ar
   108   169   163   am
   109   165   162    1
   110    54    55    1
   111    54    53    1
   112    80    82    1
   113    80    77    1
   114    55    56    2
   115    53    47   am
   116   163   162    1
   117   163   164    2
   118   162   161    1
   119    45    46    1
   120    77    78    1
   121    77    76    1
   122    78    79    2
   123    47    46    1
   124    47    48    2
   125    49    46    1
   126    49    50    1
   127   161   155   am
   128    52    50    1
   129    76    71   am
   130   156   155    2
   131   155   154    1
   132    50    51    1
   133   151   152   ar
   134   151   149   ar
   135   152   150   ar
   136    72    71    2
   137    64    63    2
   138    71    70    1
   139    66    65    1
   140    66    67    1
   141   154   153    1
   142   154   157    1
   143    61    62    1
   144   149   148   ar
   145    65    62    1
   146   150   148   ar
   147   146   145    2
   148    63    62    1
   149    67    68    1
   150    70    69    1
   151    70    73    1
   152   148   147    1
   153    74    73    1
   154   159   157    1
   155   157   158    1
   156   145   144    1
   157    73    75    1
   158   144   147    1
   159   144   143    1
   160   138   137    2
   161   158   160    1
   162   133   131    1
   163   134   132    1
   164   137   143   am
   165   137   136    1
   166   132   131    1
   167   126   124    1
   168   131   128    1
   169   124   123    1
   170   135   136    1
   171   135   129   am
   172   136   139    1
   173   125   123    1
   174   128   129    1
   175   128   127    1
   176   139   141    1
   177   139   140    1
   178   129   130    2
   179   123   120    1
   180   120   119    1
   181   120   121    1
   182   140   142    1
   183   122   121    2
