@<TRIPOS>MOLECULE
tmp/3d8aD00.pdb
 105 99 0 0 0
SMALL
GASTEIGER

@<TRIPOS>ATOM
      1  N        -20.2440   22.9620  -27.4580 N.3    19  GLN19      -0.1231
      2  CA       -21.0890   21.7580  -27.5380 C.3    19  GLN19       0.1698
      3  C        -21.2680   21.3050  -28.9820 C.2    19  GLN19       0.2592
      4  O        -21.2020   20.1120  -29.2770 O.2    19  GLN19      -0.2718
      5  CB       -22.4670   21.9220  -26.8680 C.3    19  GLN19       0.0381
      6  CG       -23.3850   20.6380  -26.9310 C.3    19  GLN19       0.0905
      7  CD       -22.6010   19.3180  -26.6790 C.2    19  GLN19       0.2608
      8  OE1      -21.8770   19.1960  -25.6890 O.2    19  GLN19      -0.2717
      9  NE2      -22.7410   18.3400  -27.5880 N.am   19  GLN19      -0.0878
     10  N        -21.4940   22.2600  -29.8750 N.am   20  SER20      -0.1952
     11  CA       -21.6830   21.9250  -31.2700 C.3    20  SER20       0.1924
     12  C        -20.3900   21.3780  -31.8890 C.2    20  SER20       0.2314
     13  O        -20.4320   20.3940  -32.6350 O.2    20  SER20      -0.2863
     14  CB       -22.2070   23.1210  -32.0400 C.3    20  SER20       0.2116
     15  OG       -22.8350   22.6920  -33.2240 O.3    20  SER20      -0.2180
     16  N        -17.8660   19.9300  -30.2690 N.3    22  VAL22      -0.1231
     17  CA       -17.6040   18.6810  -29.5870 C.3    22  VAL22       0.1692
     18  C        -18.4920   17.5460  -30.1400 C.2    22  VAL22       0.2592
     19  O        -18.0410   16.3990  -30.2700 O.2    22  VAL22      -0.2718
     20  CB       -17.7340   18.9040  -28.0670 C.3    22  VAL22       0.0266
     21  CG1      -18.3130   17.7090  -27.3490 C.3    22  VAL22       0.0020
     22  CG2      -16.3850   19.3160  -27.4910 C.3    22  VAL22       0.0020
     23  N        -19.7300   17.8650  -30.5060 N.am   23  ALA23      -0.1966
     24  CA       -20.6070   16.8700  -31.1680 C.3    23  ALA23       0.1728
     25  C        -19.9390   16.3460  -32.4480 C.2    23  ALA23       0.2616
     26  O        -19.9200   15.1440  -32.7070 O.2    23  ALA23      -0.2715
     27  CB       -21.9840   17.4740  -31.4940 C.3    23  ALA23       0.0334
     28  N        -19.3730   17.2650  -33.2290 N.am   24  LYS24      -0.1977
     29  CA       -18.7120   16.8920  -34.4640 C.3    24  LYS24       0.1596
     30  C        -17.4460   16.0760  -34.2370 C.2    24  LYS24       0.2287
     31  O        -17.2230   15.0730  -34.9210 O.2    24  LYS24      -0.2864
     32  CB       -18.4790   18.1120  -35.3480 C.3    24  LYS24       0.0298
     33  CG       -19.6490   18.3620  -36.3230 C.3    24  LYS24       0.0038
     34  CD       -20.1550   19.7810  -36.2410 C.3    24  LYS24       0.0206
     35  CE       -20.9110   20.2540  -37.5100 C.3    24  LYS24       0.1093
     36  NZ       -22.0760   19.4470  -37.9830 N.3    24  LYS24      -0.1314
     37  N        -16.8910   14.2270  -31.5870 N.3    26  LEU26      -0.1231
     38  CA       -17.4320   12.9300  -31.1720 C.3    26  LEU26       0.1693
     39  C        -17.7990   12.0580  -32.3720 C.2    26  LEU26       0.2592
     40  O        -17.4850   10.8590  -32.3980 O.2    26  LEU26      -0.2718
     41  CB       -18.6490   13.1110  -30.2460 C.3    26  LEU26       0.0284
     42  CG       -19.2070   11.8420  -29.5900 C.3    26  LEU26       0.0019
     43  CD1      -18.2570   11.3020  -28.5140 C.3    26  LEU26       0.0001
     44  CD2      -20.5830   12.0700  -29.0150 C.3    26  LEU26       0.0001
     45  N        -18.4650   12.6640  -33.3550 N.am   27  GLY27      -0.1957
     46  CA       -18.8310   11.9930  -34.6020 C.3    27  GLY27       0.1869
     47  C        -17.6380   11.4140  -35.3330 C.2    27  GLY27       0.2309
     48  O        -17.6020   10.2180  -35.6450 O.2    27  GLY27      -0.2863
     49  N        -15.9590    8.5550  -33.3170 N.3    30  SER30      -0.1202
     50  CA       -16.7160    7.2810  -33.3410 C.3    30  SER30       0.2020
     51  C        -16.4480    6.4780  -34.6050 C.2    30  SER30       0.2618
     52  O        -16.7010    5.2860  -34.6380 O.2    30  SER30      -0.2717
     53  CB       -18.2110    7.5390  -33.2600 C.3    30  SER30       0.2103
     54  OG       -18.6030    8.2740  -34.3980 O.3    30  SER30      -0.2182
     55  N        -15.9510    7.1470  -35.6430 N.am   31  LEU31      -0.1979
     56  CA       -15.6810    6.5320  -36.9440 C.3    31  LEU31       0.1596
     57  C        -14.2530    6.0380  -37.0310 C.2    31  LEU31       0.2287
     58  O        -13.8540    5.4220  -38.0180 O.2    31  LEU31      -0.2864
     59  CB       -15.9250    7.5470  -38.0730 C.3    31  LEU31       0.0297
     60  CG       -17.3900    7.9210  -38.3370 C.3    31  LEU31       0.0022
     61  CD1      -17.5150    8.7940  -39.5540 C.3    31  LEU31       0.0001
     62  CD2      -18.2830    6.6630  -38.4910 C.3    31  LEU31       0.0001
     63  N        -21.7350    5.9710  -32.3310 N.3    43  TYR43      -0.1227
     64  CA       -22.2200    7.3090  -32.0570 C.3    43  TYR43       0.1736
     65  C        -23.5710    7.3260  -31.3750 C.2    43  TYR43       0.2595
     66  O        -23.7480    8.0260  -30.3790 O.2    43  TYR43      -0.2718
     67  CB       -22.2730    8.1290  -33.3360 C.3    43  TYR43       0.0548
     68  CG       -22.5090    9.6120  -33.1430 C.ar   43  TYR43      -0.0200
     69  CD1      -21.5010   10.4450  -32.6640 C.ar   43  TYR43      -0.0009
     70  CD2      -23.7200   10.1880  -33.4840 C.ar   43  TYR43      -0.0009
     71  CE1      -21.7080   11.8250  -32.5120 C.ar   43  TYR43       0.0417
     72  CE2      -23.9340   11.5590  -33.3340 C.ar   43  TYR43       0.0417
     73  CZ       -22.9240   12.3720  -32.8460 C.ar   43  TYR43       0.1957
     74  OH       -23.1330   13.7360  -32.7020 O.3    43  TYR43      -0.2866
     75  N        -24.5220    6.5680  -31.9060 N.am   44  ALA44      -0.1980
     76  CA       -25.8690    6.5500  -31.3420 C.3    44  ALA44       0.1597
     77  C        -25.8370    6.1040  -29.8810 C.2    44  ALA44       0.2287
     78  O        -26.5150    6.6860  -29.0370 O.2    44  ALA44      -0.2864
     79  CB       -26.8050    5.6680  -32.1730 C.3    44  ALA44       0.0319
     80  N        -24.3480    8.9580  -27.6790 N.3    47  VAL47      -0.1245
     81  CA       -25.3700    9.9930  -27.5510 C.3    47  VAL47       0.1561
     82  C        -26.4690    9.5930  -26.5630 C.2    47  VAL47       0.2260
     83  O        -26.9520   10.4160  -25.7800 O.2    47  VAL47      -0.2867
     84  CB       -25.9440   10.3970  -28.9510 C.3    47  VAL47       0.0252
     85  CG1      -27.2540   11.1610  -28.8260 C.3    47  VAL47       0.0019
     86  CG2      -24.9030   11.2320  -29.7270 C.3    47  VAL47       0.0019
     87  N        -24.8800    9.9470  -23.0480 N.3    50  ILE50      -0.1231
     88  CA       -24.7340   11.3670  -22.7530 C.3    50  ILE50       0.1692
     89  C        -26.0750   12.0020  -22.3690 C.2    50  ILE50       0.2591
     90  O        -26.1540   12.7030  -21.3640 O.2    50  ILE50      -0.2718
     91  CB       -24.0710   12.1430  -23.9230 C.3    50  ILE50       0.0266
     92  CG1      -22.6050   11.7050  -24.0940 C.3    50  ILE50       0.0019
     93  CG2      -24.1540   13.6460  -23.6830 C.3    50  ILE50       0.0020
     94  CD1      -22.0290   11.9430  -25.4850 C.3    50  ILE50       0.0001
     95  N        -27.1210   11.7550  -23.1540 N.am   51  ARG51      -0.1980
     96  CA       -28.4470   12.3350  -22.8780 C.3    51  ARG51       0.1597
     97  C        -28.9960   11.8790  -21.5240 C.2    51  ARG51       0.2287
     98  O        -29.5950   12.6670  -20.8020 O.2    51  ARG51      -0.2864
     99  CB       -29.4440   12.0080  -23.9960 C.3    51  ARG51       0.0334
    100  CG       -29.3030   12.9060  -25.2120 C.3    51  ARG51       0.0492
    101  CD       -29.9620   12.2970  -26.4310 C.3    51  ARG51       0.2205
    102  NE       -30.2580   13.3000  -27.4540 N.pl3  51  ARG51      -0.0865
    103  CZ       -30.6430   13.0280  -28.7010 C.cat  51  ARG51       0.5346
    104  NH1      -30.7680   11.7700  -29.1150 N.pl3  51  ARG51       0.1354
    105  NH2      -30.9000   14.0250  -29.5420 N.pl3  51  ARG51       0.1354
@<TRIPOS>BOND
     1    61    60    1
     2    62    60    1
     3    60    59    1
     4    59    56    1
     5    58    57    2
     6    36    35    1
     7    35    34    1
     8    57    56    1
     9    56    55    1
    10    33    34    1
    11    33    32    1
    12    48    47    2
    13    55    51   am
    14    32    29    1
    15    47    46    1
    16    31    30    2
    17    52    51    2
    18    51    50    1
    19    46    45    1
    20    29    30    1
    21    29    28    1
    22    54    53    1
    23    70    72   ar
    24    70    68   ar
    25    45    39   am
    26    50    49    1
    27    50    53    1
    28    67    68    1
    29    67    64    1
    30    72    73   ar
    31    28    25   am
    32    15    14    1
    33    68    69   ar
    34    73    74    1
    35    73    71   ar
    36    26    25    2
    37    69    71   ar
    38    13    12    2
    39    25    24    1
    40    40    39    2
    41    39    38    1
    42    63    64    1
    43    79    76    1
    44    64    65    1
    45    14    11    1
    46    75    65   am
    47    75    76    1
    48    12    11    1
    49    37    38    1
    50    27    24    1
    51    65    66    2
    52    76    77    1
    53    11    10    1
    54    38    41    1
    55    24    23    1
    56    23    18   am
    57    19    18    2
    58    16    17    1
    59    41    42    1
    60    18    17    1
    61    77    78    2
    62    10     3   am
    63    86    84    1
    64    42    44    1
    65    42    43    1
    66    17    20    1
    67   105   103    1
    68     4     3    2
    69   104   103    1
    70     3     2    1
    71    84    85    1
    72    84    81    1
    73   103   102    2
    74    20    22    1
    75    20    21    1
    76    80    81    1
    77     9     7   am
    78    81    82    1
    79     2     1    1
    80     2     5    1
    81   102   101    1
    82     6     5    1
    83     6     7    1
    84     7     8    2
    85    82    83    2
    86   101   100    1
    87    94    92    1
    88   100    99    1
    89    92    91    1
    90    99    96    1
    91    91    93    1
    92    91    88    1
    93    95    96    1
    94    95    89   am
    95    87    88    1
    96    96    97    1
    97    88    89    1
    98    89    90    2
    99    97    98    2
