@<TRIPOS>MOLECULE
tmp/3d8aF00.pdb
 105 99 0 0 0
SMALL
GASTEIGER

@<TRIPOS>ATOM
      1  N        -50.1500   19.8610  -36.2230 N.3    19  GLN19      -0.1231
      2  CA       -50.0720   19.4690  -34.8080 C.3    19  GLN19       0.1698
      3  C        -49.6330   20.6350  -33.9230 C.2    19  GLN19       0.2592
      4  O        -50.2110   20.8890  -32.8560 O.2    19  GLN19      -0.2718
      5  CB       -49.1280   18.2830  -34.5840 C.3    19  GLN19       0.0381
      6  CG       -49.0800   17.8400  -33.1110 C.3    19  GLN19       0.0905
      7  CD       -50.4610   17.9030  -32.4420 C.2    19  GLN19       0.2608
      8  OE1      -51.4300   17.3280  -32.9390 O.2    19  GLN19      -0.2717
      9  NE2      -50.5530   18.6220  -31.3220 N.am   19  GLN19      -0.0878
     10  N        -48.6130   21.3420  -34.3780 N.am   20  SER20      -0.1952
     11  CA       -48.0950   22.4580  -33.6230 C.3    20  SER20       0.1924
     12  C        -49.1420   23.5850  -33.5330 C.2    20  SER20       0.2314
     13  O        -49.3490   24.1660  -32.4580 O.2    20  SER20      -0.2863
     14  CB       -46.7980   22.9480  -34.2560 C.3    20  SER20       0.2116
     15  OG       -45.7960   23.0510  -33.2720 O.3    20  SER20      -0.2180
     16  N        -52.3970   23.3080  -33.8330 N.3    22  VAL22      -0.1231
     17  CA       -53.5400   22.8150  -33.1050 C.3    22  VAL22       0.1692
     18  C        -53.2630   22.8250  -31.5950 C.2    22  VAL22       0.2592
     19  O        -54.1640   23.1260  -30.8120 O.2    22  VAL22      -0.2718
     20  CB       -53.9510   21.4520  -33.6860 C.3    22  VAL22       0.0266
     21  CG1      -54.7870   20.6470  -32.7250 C.3    22  VAL22       0.0020
     22  CG2      -54.6710   21.6730  -35.0020 C.3    22  VAL22       0.0020
     23  N        -52.0160   22.5550  -31.2040 N.am   23  ALA23      -0.1966
     24  CA       -51.6010   22.6330  -29.8020 C.3    23  ALA23       0.1728
     25  C        -51.8250   24.0570  -29.2670 C.2    23  ALA23       0.2616
     26  O        -52.3380   24.2490  -28.1630 O.2    23  ALA23      -0.2715
     27  CB       -50.1430   22.2000  -29.6500 C.3    23  ALA23       0.0334
     28  N        -51.4790   25.0530  -30.0710 N.am   24  LYS24      -0.1977
     29  CA       -51.7010   26.4430  -29.6810 C.3    24  LYS24       0.1596
     30  C        -53.1820   26.8140  -29.6140 C.2    24  LYS24       0.2287
     31  O        -53.6000   27.5090  -28.6770 O.2    24  LYS24      -0.2864
     32  CB       -50.9000   27.4190  -30.5530 C.3    24  LYS24       0.0298
     33  CG       -49.4170   27.0530  -30.6330 C.3    24  LYS24       0.0038
     34  CD       -48.5260   28.2470  -30.7420 C.3    24  LYS24       0.0206
     35  CE       -47.7160   28.4640  -29.4710 C.3    24  LYS24       0.1093
     36  NZ       -46.4740   27.6330  -29.4520 N.3    24  LYS24      -0.1314
     37  N        -55.5940   24.6740  -29.0060 N.3    26  LEU26      -0.1231
     38  CA       -56.0130   23.9770  -27.7940 C.3    26  LEU26       0.1693
     39  C        -55.7340   24.8350  -26.5460 C.2    26  LEU26       0.2592
     40  O        -56.6120   25.0150  -25.6900 O.2    26  LEU26      -0.2718
     41  CB       -55.2910   22.6280  -27.7050 C.3    26  LEU26       0.0284
     42  CG       -55.8200   21.5250  -26.7830 C.3    26  LEU26       0.0019
     43  CD1      -57.2560   21.1380  -27.1110 C.3    26  LEU26       0.0001
     44  CD2      -54.9300   20.3050  -26.8740 C.3    26  LEU26       0.0001
     45  N        -54.5150   25.3770  -26.4740 N.am   27  GLY27      -0.1957
     46  CA       -54.1000   26.2640  -25.3960 C.3    27  GLY27       0.1869
     47  C        -55.0370   27.4410  -25.2300 C.2    27  GLY27       0.2309
     48  O        -55.5710   27.6600  -24.1470 O.2    27  GLY27      -0.2863
     49  N        -58.5650   26.3300  -24.0950 N.3    30  SER30      -0.1202
     50  CA       -58.6080   25.9170  -22.6880 C.3    30  SER30       0.2020
     51  C        -58.7370   27.1060  -21.7280 C.2    30  SER30       0.2618
     52  O        -59.1720   26.9370  -20.5890 O.2    30  SER30      -0.2717
     53  CB       -57.3930   25.0520  -22.3260 C.3    30  SER30       0.2103
     54  OG       -56.2120   25.8190  -22.2480 O.3    30  SER30      -0.2182
     55  N        -58.3670   28.2970  -22.2000 N.am   31  LEU31      -0.1979
     56  CA       -58.4270   29.5200  -21.3910 C.3    31  LEU31       0.1596
     57  C        -59.7160   30.3000  -21.6320 C.2    31  LEU31       0.2287
     58  O        -59.9550   31.3130  -20.9940 O.2    31  LEU31      -0.2864
     59  CB       -57.2080   30.4030  -21.6670 C.3    31  LEU31       0.0297
     60  CG       -55.8350   29.8480  -21.2730 C.3    31  LEU31       0.0022
     61  CD1      -54.7440   30.5770  -22.0290 C.3    31  LEU31       0.0001
     62  CD2      -55.5890   29.9620  -19.7760 C.3    31  LEU31       0.0001
     63  N        -56.1710   22.4590  -19.6680 N.3    43  TYR43      -0.1227
     64  CA       -55.1750   22.0880  -20.6760 C.3    43  TYR43       0.1736
     65  C        -54.3920   20.8370  -20.3210 C.2    43  TYR43       0.2595
     66  O        -54.2970   19.9150  -21.1260 O.2    43  TYR43      -0.2718
     67  CB       -54.2100   23.2380  -20.9490 C.3    43  TYR43       0.0548
     68  CG       -53.2340   22.9940  -22.0880 C.ar   43  TYR43      -0.0200
     69  CD1      -53.6450   23.0990  -23.4190 C.ar   43  TYR43      -0.0009
     70  CD2      -51.8940   22.6800  -21.8360 C.ar   43  TYR43      -0.0009
     71  CE1      -52.7500   22.8920  -24.4710 C.ar   43  TYR43       0.0417
     72  CE2      -50.9920   22.4730  -22.8820 C.ar   43  TYR43       0.0417
     73  CZ       -51.4300   22.5830  -24.1950 C.ar   43  TYR43       0.1957
     74  OH       -50.5510   22.3880  -25.2350 O.3    43  TYR43      -0.2866
     75  N        -53.8240   20.8170  -19.1220 N.am   44  ALA44      -0.1980
     76  CA       -53.0310   19.6830  -18.6700 C.3    44  ALA44       0.1597
     77  C        -53.8340   18.3850  -18.7240 C.2    44  ALA44       0.2287
     78  O        -53.3220   17.3530  -19.1730 O.2    44  ALA44      -0.2864
     79  CB       -52.4990   19.9360  -17.2600 C.3    44  ALA44       0.0319
     80  N        -54.3740   17.3030  -22.3870 N.3    47  VAL47      -0.1245
     81  CA       -53.0940   16.8040  -22.9140 C.3    47  VAL47       0.1561
     82  C        -52.8310   15.3830  -22.4390 C.2    47  VAL47       0.2260
     83  O        -52.3580   14.5370  -23.2040 O.2    47  VAL47      -0.2867
     84  CB       -51.9020   17.7070  -22.5070 C.3    47  VAL47       0.0252
     85  CG1      -50.5610   16.9880  -22.7230 C.3    47  VAL47       0.0019
     86  CG2      -51.9370   19.0400  -23.2580 C.3    47  VAL47       0.0019
     87  N        -55.1790   13.0430  -24.4120 N.3    50  ILE50      -0.1231
     88  CA       -54.6920   12.9660  -25.7930 C.3    50  ILE50       0.1692
     89  C        -53.5080   12.0230  -25.8940 C.2    50  ILE50       0.2591
     90  O        -53.4810   11.1670  -26.7710 O.2    50  ILE50      -0.2718
     91  CB       -54.2860   14.3540  -26.3430 C.3    50  ILE50       0.0266
     92  CG1      -55.5280   15.1770  -26.7030 C.3    50  ILE50       0.0019
     93  CG2      -53.4040   14.2260  -27.5820 C.3    50  ILE50       0.0020
     94  CD1      -55.2930   16.6920  -26.6570 C.3    50  ILE50       0.0001
     95  N        -52.5430   12.1830  -24.9890 N.am   51  ARG51      -0.1980
     96  CA       -51.3250   11.3840  -24.9880 C.3    51  ARG51       0.1597
     97  C        -51.6350    9.9100  -24.7800 C.2    51  ARG51       0.2287
     98  O        -51.0210    9.0420  -25.4150 O.2    51  ARG51      -0.2864
     99  CB       -50.3460   11.8970  -23.9180 C.3    51  ARG51       0.0334
    100  CG       -49.6150   13.1720  -24.3150 C.3    51  ARG51       0.0492
    101  CD       -48.6870   13.6700  -23.2070 C.3    51  ARG51       0.2205
    102  NE       -47.7280   14.6720  -23.6880 N.pl3  51  ARG51      -0.0865
    103  CZ       -46.8500   15.3160  -22.9210 C.cat  51  ARG51       0.5346
    104  NH1      -46.7980   15.0820  -21.6160 N.pl3  51  ARG51       0.1354
    105  NH2      -46.0210   16.2050  -23.4570 N.pl3  51  ARG51       0.1354
@<TRIPOS>BOND
     1     1     2    1
     2    22    20    1
     3     2     5    1
     4     2     3    1
     5     5     6    1
     6    10     3   am
     7    10    11    1
     8    14    11    1
     9    14    15    1
    10     3     4    2
    11    16    17    1
    12    20    17    1
    13    20    21    1
    14    11    12    1
    15    12    13    2
    16     6     7    1
    17    17    18    1
    18     8     7    2
    19     7     9   am
    20    18    23   am
    21    18    19    2
    22    23    24    1
    23    34    33    1
    24    34    35    1
    25    33    32    1
    26    32    29    1
    27    28    29    1
    28    28    25   am
    29    24    27    1
    30    24    25    1
    31    29    30    1
    32    30    31    2
    33    35    36    1
    34    25    26    2
    35    37    38    1
    36    38    41    1
    37    38    39    1
    38    41    42    1
    39    93    91    1
    40    43    42    1
    41    44    42    1
    42    90    89    2
    43    92    94    1
    44    92    91    1
    45    39    45   am
    46    39    40    2
    47    45    46    1
    48    91    88    1
    49    89    88    1
    50    89    95   am
    51    88    87    1
    52    98    97    2
    53    46    47    1
    54    74    73    1
    55    47    48    2
    56    95    96    1
    57    96    97    1
    58    96    99    1
    59    71    73   ar
    60    71    69   ar
    61   100    99    1
    62   100   101    1
    63    73    72   ar
    64    49    50    1
    65   102   101    1
    66   102   103    2
    67   105   103    1
    68    69    68   ar
    69    86    84    1
    70    83    82    2
    71   103   104    1
    72    81    84    1
    73    81    82    1
    74    81    80    1
    75    72    70   ar
    76    85    84    1
    77    50    53    1
    78    50    51    1
    79    53    54    1
    80    55    51   am
    81    55    56    1
    82    68    70   ar
    83    68    67    1
    84    61    60    1
    85    51    52    2
    86    59    56    1
    87    59    60    1
    88    57    56    1
    89    57    58    2
    90    60    62    1
    91    66    65    2
    92    67    64    1
    93    64    65    1
    94    64    63    1
    95    65    75   am
    96    78    77    2
    97    75    76    1
    98    77    76    1
    99    76    79    1
