@<TRIPOS>MOLECULE
tmp/3d8bA00.pdb
 132 125 0 0 0
SMALL
GASTEIGER

@<TRIPOS>ATOM
      1  N        -41.8930  -13.5230    5.8570 N.3    29  ASP29      -0.1225
      2  CA       -41.7330  -12.4460    6.8360 C.3    29  ASP29       0.1805
      3  C        -42.8080  -12.4930    7.9270 C.2    29  ASP29       0.2598
      4  O        -42.7180  -11.7530    8.8990 O.2    29  ASP29      -0.2718
      5  CB       -41.8580  -11.0920    6.1520 C.3    29  ASP29       0.1424
      6  CG       -40.7570  -10.8240    5.1400 C.2    29  ASP29       0.3668
      7  OD1      -39.6600  -11.3940    5.2610 O.co2  29  ASP29      -0.2456
      8  OD2      -41.0000  -10.0130    4.2200 O.co2  29  ASP29      -0.2456
      9  N        -43.8510  -13.3030    7.7380 N.am   30  ILE30      -0.1966
     10  CA       -44.9530  -13.3890    8.6930 C.3    30  ILE30       0.1727
     11  C        -44.9000  -14.7160    9.4810 C.2    30  ILE30       0.2616
     12  O        -45.0820  -15.7830    8.9040 O.2    30  ILE30      -0.2715
     13  CB       -46.3130  -13.3200    7.9820 C.3    30  ILE30       0.0290
     14  CG1      -46.4820  -12.0090    7.2290 C.3    30  ILE30       0.0022
     15  CG2      -47.4710  -13.4790    8.9850 C.3    30  ILE30       0.0023
     16  CD1      -47.6690  -12.0620    6.2740 C.3    30  ILE30       0.0001
     17  N        -44.6670  -14.6330   10.7940 N.am   31  ALA31      -0.1977
     18  CA       -44.5630  -15.8260   11.6460 C.3    31  ALA31       0.1597
     19  C        -45.9430  -16.2920   12.0900 C.2    31  ALA31       0.2287
     20  O        -46.8350  -15.4740   12.3910 O.2    31  ALA31      -0.2864
     21  CB       -43.6700  -15.5440   12.8840 C.3    31  ALA31       0.0319
     22  N        -49.6890  -17.8460   12.0360 N.3    33  VAL33      -0.1245
     23  CA       -50.8920  -17.6690   11.2520 C.3    33  VAL33       0.1561
     24  C        -50.9320  -18.5190    9.9840 C.2    33  VAL33       0.2260
     25  O        -51.2430  -18.0370    8.9090 O.2    33  VAL33      -0.2867
     26  CB       -51.1930  -16.1760   10.9830 C.3    33  VAL33       0.0252
     27  CG1      -51.5280  -15.4980   12.2880 C.3    33  VAL33       0.0019
     28  CG2      -50.0440  -15.4800   10.2830 C.3    33  VAL33       0.0019
     29  N        -54.0660   -6.0140   19.1510 N.3    70  PRO70      -0.2102
     30  CA       -53.0680   -5.2260   18.4550 C.3    70  PRO70       0.1504
     31  C        -51.7160   -5.9240   18.2800 C.2    70  PRO70       0.2576
     32  O        -51.3130   -6.7310   19.1140 O.2    70  PRO70      -0.2718
     33  CB       -52.9450   -3.9640   19.3150 C.3    70  PRO70       0.0282
     34  CG       -54.1870   -3.9130   20.1400 C.3    70  PRO70       0.0208
     35  CD       -54.5270   -5.3440   20.3860 C.3    70  PRO70       0.0893
     36  N        -51.0360   -5.6070   17.1760 N.am   71  GLY71      -0.1943
     37  CA       -49.7100   -6.1130   16.9360 C.3    71  GLY71       0.2014
     38  C        -49.5450   -7.5660   16.5530 C.2    71  GLY71       0.2640
     39  O        -48.5030   -8.1160   16.7820 O.2    71  GLY71      -0.2714
     40  N        -50.5390   -8.1820   15.9090 N.am   72  THR72      -0.1936
     41  CA       -50.4670   -9.6030   15.5660 C.3    72  THR72       0.2028
     42  C        -50.1460   -9.8570   14.0840 C.2    72  THR72       0.2643
     43  O        -49.9270  -11.0030   13.6740 O.2    72  THR72      -0.2714
     44  CB       -51.7590  -10.3210   15.9210 C.3    72  THR72       0.1808
     45  OG1      -52.8760   -9.6770   15.2650 O.3    72  THR72      -0.2208
     46  CG2      -51.9520  -10.3870   17.4870 C.3    72  THR72       0.0379
     47  N        -50.0420   -8.7960   13.3010 N.am   73  GLY73      -0.1939
     48  CA       -49.6340   -8.9300   11.9050 C.3    73  GLY73       0.2014
     49  C        -50.7090   -8.6570   10.8620 C.2    73  GLY73       0.2639
     50  O        -50.5490   -9.0160    9.6910 O.2    73  GLY73      -0.2714
     51  N        -51.7740   -7.9830   11.2550 N.am   74  LYS74      -0.1963
     52  CA       -52.8830   -7.6750   10.3410 C.3    74  LYS74       0.1728
     53  C        -52.4340   -6.7650    9.1930 C.2    74  LYS74       0.2617
     54  O        -52.7360   -7.0410    8.0240 O.2    74  LYS74      -0.2715
     55  CB       -54.0630   -7.0670   11.1080 C.3    74  LYS74       0.0311
     56  CG       -54.6100   -8.0120   12.1950 C.3    74  LYS74       0.0038
     57  CD       -55.8910   -7.5340   12.8620 C.3    74  LYS74       0.0206
     58  CE       -55.6690   -6.6550   14.0630 C.3    74  LYS74       0.1093
     59  NZ       -54.5430   -7.0690   14.9730 N.3    74  LYS74      -0.1314
     60  N        -51.7360   -5.6770    9.5200 N.am   75  THR75      -0.1937
     61  CA       -51.2260   -4.7780    8.5000 C.3    75  THR75       0.2028
     62  C        -50.1740   -5.4720    7.6510 C.2    75  THR75       0.2642
     63  O        -50.1000   -5.2500    6.4350 O.2    75  THR75      -0.2714
     64  CB       -50.6280   -3.4900    9.0980 C.3    75  THR75       0.1808
     65  OG1      -51.5290   -2.9490   10.0680 O.3    75  THR75      -0.2208
     66  CG2      -50.4080   -2.4430    7.9920 C.3    75  THR75       0.0379
     67  N        -49.3590   -6.3040    8.2900 N.am   76  LEU76      -0.1977
     68  CA       -48.3040   -7.0500    7.6080 C.3    76  LEU76       0.1596
     69  C        -48.9190   -7.9720    6.5640 C.2    76  LEU76       0.2287
     70  O        -48.4640   -8.0420    5.4120 O.2    76  LEU76      -0.2864
     71  CB       -47.4950   -7.8120    8.6490 C.3    76  LEU76       0.0297
     72  CG       -46.0760   -8.2940    8.4460 C.3    76  LEU76       0.0022
     73  CD1      -45.1660   -7.1300    7.9790 C.3    76  LEU76       0.0001
     74  CD2      -45.5900   -8.9080    9.7740 C.3    76  LEU76       0.0001
     75  N        -56.3360   -0.9250    2.6430 N.3   125  PHE125     -0.1241
     76  CA       -56.3410   -1.4430    4.0150 C.3   125  PHE125      0.1605
     77  C        -56.8250   -0.3580    4.9630 C.2   125  PHE125      0.2264
     78  O        -56.2710    0.7550    5.0080 O.2   125  PHE125     -0.2867
     79  CB       -54.9470   -1.8990    4.3880 C.3   125  PHE125      0.0534
     80  CG       -54.8270   -2.4930    5.7630 C.ar  125  PHE125     -0.0203
     81  CD1      -54.9340   -3.8600    5.9460 C.ar  125  PHE125     -0.0042
     82  CD2      -54.5400   -1.6770    6.8630 C.ar  125  PHE125     -0.0042
     83  CE1      -54.7990   -4.4170    7.1870 C.ar  125  PHE125     -0.0003
     84  CE2      -54.3800   -2.2210    8.1330 C.ar  125  PHE125     -0.0003
     85  CZ       -54.5320   -3.5760    8.3130 C.ar  125  PHE125     -0.0000
     86  N        -57.5880    0.4350    8.8560 N.3   127  ASP127     -0.1239
     87  CA       -57.3670    0.0510   10.2560 C.3   127  ASP127      0.1674
     88  C        -58.4910    0.6220   11.1440 C.2   127  ASP127      0.2266
     89  O        -59.0630    1.6640   10.8380 O.2   127  ASP127     -0.2867
     90  CB       -55.9960    0.5590   10.6990 C.3   127  ASP127      0.1410
     91  CG       -55.3530   -0.3180   11.7800 C.2   127  ASP127      0.3668
     92  OD1      -55.8820   -1.4070   12.1040 O.co2 127  ASP127     -0.2456
     93  OD2      -54.3090    0.1020   12.3110 O.co2 127  ASP127     -0.2456
     94  N        -59.6820   -4.5030   16.3300 N.3   163  ASN163     -0.1240
     95  CA       -59.5310   -5.1830   17.6160 C.3   163  ASN163      0.1653
     96  C        -60.9060   -5.3630   18.2630 C.2   163  ASN163      0.2266
     97  O        -60.9930   -5.8890   19.3740 O.2   163  ASN163     -0.2867
     98  CB       -58.6410   -4.3750   18.5930 C.3   163  ASN163      0.1155
     99  CG       -57.3790   -3.8500   17.9400 C.2   163  ASN163      0.2627
    100  OD1      -57.1580   -2.6400   17.8820 O.2   163  ASN163     -0.2716
    101  ND2      -56.5580   -4.7550   17.4200 N.am  163  ASN163     -0.0877
    102  N        -48.9080  -14.5030   18.7310 N.3   185  PRO185     -0.2116
    103  CA       -48.0560  -15.6090   18.2960 C.3   185  PRO185      0.1372
    104  C        -47.9320  -16.7330   19.3280 C.2   185  PRO185      0.2244
    105  O        -47.6910  -16.4800   20.5180 O.2   185  PRO185     -0.2868
    106  CB       -46.6950  -14.9440   18.0410 C.3   185  PRO185      0.0268
    107  CG       -46.7560  -13.6420   18.7670 C.3   185  PRO185      0.0207
    108  CD       -48.1810  -13.2330   18.8420 C.3   185  PRO185      0.0892
    109  N        -39.7460  -15.3860   15.1490 N.3   193  ILE193     -0.1245
    110  CA       -39.5190  -13.9560   15.1140 C.3   193  ILE193      0.1561
    111  C        -38.1360  -13.6280   15.6640 C.2   193  ILE193      0.2260
    112  O        -37.3830  -12.8740   15.0490 O.2   193  ILE193     -0.2867
    113  CB       -40.6010  -13.1740   15.8930 C.3   193  ILE193      0.0252
    114  CG1      -41.9220  -13.1860   15.1140 C.3   193  ILE193      0.0019
    115  CG2      -40.1570  -11.7290   16.1210 C.3   193  ILE193      0.0019
    116  CD1      -43.1310  -12.6060   15.8880 C.3   193  ILE193      0.0001
    117  N        -46.7290  -10.0010   18.1370 N.3   222  GLY222     -0.1210
    118  CA       -45.6260   -9.9580   17.1920 C.3   222  GLY222      0.1956
    119  C        -44.8700   -8.6450   17.2710 C.2   222  GLY222      0.2611
    120  O        -43.6490   -8.6250   17.1370 O.2   222  GLY222     -0.2717
    121  N        -45.6030   -7.5470   17.4930 N.am  223  ALA223     -0.1979
    122  CA       -44.9900   -6.2170   17.6610 C.3   223  ALA223      0.1597
    123  C        -44.1390   -6.1120   18.9400 C.2   223  ALA223      0.2287
    124  O        -43.0740   -5.4910   18.9300 O.2   223  ALA223     -0.2864
    125  CB       -46.0850   -5.1040   17.6350 C.3   223  ALA223      0.0319
    126  N        -41.0360   -8.0240   18.3070 N.3   226  THR226     -0.1218
    127  CA       -40.1780   -7.1790   17.4970 C.3   226  THR226      0.1862
    128  C        -39.4870   -6.0660   18.3230 C.2   226  THR226      0.2287
    129  O        -38.2550   -5.8680   18.2170 O.2   226  THR226     -0.2866
    130  CB       -41.0040   -6.6730   16.2710 C.3   226  THR226      0.1770
    131  OG1      -41.4440   -7.8330   15.5430 O.3   226  THR226     -0.2211
    132  CG2      -40.1910   -5.7710   15.3650 C.3   226  THR226      0.0375
@<TRIPOS>BOND
     1    75    76    1
     2    76    79    1
     3    76    77    1
     4     8     6   ar
     5    79    80    1
     6    77    78    2
     7     6     7   ar
     8     6     5    1
     9    70    69    2
    10    80    81   ar
    11    80    82   ar
    12     1     2    1
    13    81    83   ar
    14     5     2    1
    15    16    14    1
    16    63    62    2
    17    69    68    1
    18     2     3    1
    19    82    84   ar
    20    83    85   ar
    21    14    13    1
    22    68    67    1
    23    68    71    1
    24    62    67   am
    25    62    61    1
    26     9     3   am
    27     9    10    1
    28     3     4    2
    29    73    72    1
    30    13    10    1
    31    13    15    1
    32    66    64    1
    33    54    53    2
    34    84    85   ar
    35    72    71    1
    36    72    74    1
    37    61    64    1
    38    61    60    1
    39    10    11    1
    40    86    87    1
    41    12    11    2
    42    25    24    2
    43    64    65    1
    44    53    60   am
    45    53    52    1
    46    11    17   am
    47    50    49    2
    48    24    23    1
    49    87    90    1
    50    87    88    1
    51    28    26    1
    52    52    55    1
    53    52    51    1
    54    90    91    1
    55    17    18    1
    56    89    88    2
    57    49    51   am
    58    49    48    1
    59    26    23    1
    60    26    27    1
    61    55    56    1
    62    23    22    1
    63    18    19    1
    64    18    21    1
    65    91    92   ar
    66    91    93   ar
    67    48    47    1
    68    19    20    2
    69    56    57    1
    70    57    58    1
    71    47    42   am
    72    43    42    2
    73    58    59    1
    74    42    41    1
    75   112   111    2
    76   110   109    1
    77   110   111    1
    78   110   113    1
    79   114   116    1
    80   114   113    1
    81    45    44    1
    82   132   130    1
    83   131   130    1
    84    41    40    1
    85    41    44    1
    86   113   115    1
    87    40    38   am
    88    44    46    1
    89   130   127    1
    90    94    95    1
    91    38    39    2
    92    38    37    1
    93    37    36    1
    94   120   119    2
    95    36    31   am
    96   118   119    1
    97   118   117    1
    98   119   121   am
    99   101    99   am
   100   121   122    1
   101   127   126    1
   102   127   128    1
   103    95    96    1
   104    95    98    1
   105   125   122    1
   106   122   123    1
   107   100    99    2
   108    99    98    1
   109   106   103    1
   110   106   107    1
   111   129   128    2
   112    96    97    2
   113    31    30    1
   114    31    32    2
   115   103   102    1
   116   103   104    1
   117    30    29    1
   118    30    33    1
   119   102   108    1
   120   107   108    1
   121   124   123    2
   122    29    35    1
   123    33    34    1
   124   104   105    2
   125    34    35    1
