@<TRIPOS>MOLECULE
tmp/3d8zB00.pdb
 108 106 0 0 0
SMALL
GASTEIGER

@<TRIPOS>ATOM
      1  N         17.3530   -7.5890   30.9220 N.3     7  LYS7       -0.1231
      2  CA        15.9770   -7.6110   30.3980 C.3     7  LYS7        0.1693
      3  C         15.2150   -6.3360   30.7710 C.2     7  LYS7        0.2592
      4  O         14.5290   -5.7530   29.9290 O.2     7  LYS7       -0.2718
      5  CB        15.2360   -8.8700   30.8830 C.3     7  LYS7        0.0285
      6  CG        13.8090   -9.0420   30.3200 C.3     7  LYS7        0.0035
      7  CD        13.1880  -10.3550   30.7640 C.3     7  LYS7        0.0206
      8  CE        11.7270  -10.4270   30.3210 C.3     7  LYS7        0.1093
      9  NZ        11.1830  -11.8280   30.2460 N.3     7  LYS7       -0.1314
     10  N         15.3310   -5.9020   32.0290 N.am    8  PHE8       -0.1976
     11  CA        14.7590   -4.6110   32.4410 C.3     8  PHE8        0.1639
     12  C         15.2530   -3.4430   31.5790 C.2     8  PHE8        0.2290
     13  O         14.4400   -2.6170   31.1440 O.2     8  PHE8       -0.2864
     14  CB        15.0150   -4.3000   33.9270 C.3     8  PHE8        0.0560
     15  CG        14.4600   -2.9550   34.3620 C.ar    8  PHE8       -0.0200
     16  CD1       13.1820   -2.8560   34.8820 C.ar    8  PHE8       -0.0042
     17  CD2       15.2270   -1.7940   34.2300 C.ar    8  PHE8       -0.0042
     18  CE1       12.6500   -1.6050   35.2810 C.ar    8  PHE8       -0.0003
     19  CE2       14.7170   -0.5390   34.6090 C.ar    8  PHE8       -0.0003
     20  CZ        13.4160   -0.4490   35.1260 C.ar    8  PHE8       -0.0000
     21  N         13.7760   -3.8150   28.0160 N.3    11  GLN11      -0.1231
     22  CA        12.3310   -3.5550   27.9310 C.3    11  GLN11       0.1698
     23  C         11.9070   -2.1430   28.3380 C.2    11  GLN11       0.2592
     24  O         10.8460   -1.6630   27.9080 O.2    11  GLN11      -0.2718
     25  CB        11.5320   -4.5470   28.7820 C.3    11  GLN11       0.0381
     26  CG        11.7200   -5.9940   28.4180 C.3    11  GLN11       0.0905
     27  CD        10.6690   -6.8810   29.0390 C.2    11  GLN11       0.2608
     28  OE1        9.8990   -7.5150   28.3300 O.2    11  GLN11      -0.2717
     29  NE2       10.6200   -6.9210   30.3630 N.am   11  GLN11      -0.0878
     30  N         12.6770   -1.4980   29.2130 N.am   12  HIS12      -0.1976
     31  CA        12.1430   -0.3230   29.9260 C.3    12  HIS12       0.1656
     32  C         13.0030    0.9240   29.9380 C.2    12  HIS12       0.2291
     33  O         12.5290    1.9800   30.3570 O.2    12  HIS12      -0.2864
     34  CB        11.7650   -0.6910   31.3740 C.3    12  HIS12       0.0771
     35  CG        10.7540   -1.7880   31.4660 C.ar   12  HIS12       0.0820
     36  ND1        9.4810   -1.6650   30.9520 N.ar   12  HIS12      -0.2267
     37  CD2       10.8250   -3.0270   32.0070 C.ar   12  HIS12       0.1154
     38  CE1        8.8120   -2.7840   31.1680 C.ar   12  HIS12       0.1986
     39  NE2        9.6080   -3.6260   31.8030 N.ar   12  HIS12      -0.2212
     40  N          3.7040   -7.6330   22.4580 N.3    41  LYS41      -0.1245
     41  CA         3.5930   -7.3500   23.8940 C.3    41  LYS41       0.1561
     42  C          2.5660   -6.2290   24.0590 C.2    41  LYS41       0.2260
     43  O          2.7460   -5.1460   23.5050 O.2    41  LYS41      -0.2867
     44  CB         4.9280   -6.9610   24.5280 C.3    41  LYS41       0.0271
     45  CG         4.8660   -6.8810   26.0550 C.3    41  LYS41       0.0035
     46  CD         6.1910   -6.4560   26.6550 C.3    41  LYS41       0.0206
     47  CE         6.1220   -6.4260   28.1890 C.3    41  LYS41       0.1093
     48  NZ         7.1190   -5.4690   28.7550 N.3    41  LYS41      -0.1314
     49  N          1.3140   -4.2040   26.6190 N.3    43  VAL43      -0.1231
     50  CA         1.5870   -2.9770   27.3640 C.3    43  VAL43       0.1692
     51  C          3.0480   -2.9410   27.7900 C.2    43  VAL43       0.2592
     52  O          3.5610   -3.9310   28.3220 O.2    43  VAL43      -0.2718
     53  CB         0.6760   -2.8710   28.6330 C.3    43  VAL43       0.0266
     54  CG1        0.9360   -1.5720   29.3840 C.3    43  VAL43       0.0020
     55  CG2       -0.7900   -2.9680   28.2460 C.3    43  VAL43       0.0020
     56  N          3.7190   -1.8070   27.5650 N.am   44  ASN44      -0.1974
     57  CA         5.1220   -1.6430   27.9760 C.3    44  ASN44       0.1688
     58  C          5.4620   -0.1640   28.1940 C.2    44  ASN44       0.2292
     59  O          5.0510    0.7020   27.4150 O.2    44  ASN44      -0.2864
     60  CB         6.0720   -2.2510   26.9330 C.3    44  ASN44       0.1181
     61  CG         7.5240   -2.3140   27.4200 C.2    44  ASN44       0.2629
     62  OD1        7.8800   -3.1500   28.2500 O.2    44  ASN44      -0.2716
     63  ND2        8.3630   -1.4200   26.9000 N.am   44  ASN44      -0.0877
     64  N          3.0110   -5.5980   43.1860 N.3    66  LYS66      -0.1245
     65  CA         1.7060   -6.1490   42.8150 C.3    66  LYS66       0.1561
     66  C          1.5750   -7.6140   43.1940 C.2    66  LYS66       0.2260
     67  O          0.5200   -8.0370   43.6430 O.2    66  LYS66      -0.2867
     68  CB         1.4560   -6.0120   41.3160 C.3    66  LYS66       0.0271
     69  CG         0.8010   -4.7190   40.9020 C.3    66  LYS66       0.0035
     70  CD         1.1260   -4.4080   39.4330 C.3    66  LYS66       0.0206
     71  CE         0.6510   -3.0150   39.0640 C.3    66  LYS66       0.1093
     72  NZ         1.2930   -2.0410   39.9720 N.3    66  LYS66      -0.1314
     73  N         14.7800   -5.0110   38.2970 N.3   118  VAL118     -0.1231
     74  CA        14.6670   -6.2710   37.5610 C.3   118  VAL118      0.1692
     75  C         13.2520   -6.4240   36.9930 C.2   118  VAL118      0.2592
     76  O         12.9790   -7.3670   36.2620 O.2   118  VAL118     -0.2718
     77  CB        15.0300   -7.5190   38.4470 C.3   118  VAL118      0.0266
     78  CG1       16.5350   -7.5610   38.7550 C.3   118  VAL118      0.0020
     79  CG2       14.2240   -7.5480   39.7640 C.3   118  VAL118      0.0020
     80  N         12.3570   -5.5110   37.3670 N.am  119  HIS119     -0.1962
     81  CA        10.9450   -5.5790   36.9800 C.3   119  HIS119      0.1787
     82  C         10.3230   -4.1960   37.0690 C.2   119  HIS119      0.2620
     83  O         10.5570   -3.4550   38.0320 O.2   119  HIS119     -0.2715
     84  CB        10.1940   -6.5860   37.8930 C.3   119  HIS119      0.0785
     85  CG         8.7020   -6.5380   37.7860 C.ar  119  HIS119      0.0821
     86  ND1        7.9060   -5.9170   38.7300 N.ar  119  HIS119     -0.2267
     87  CD2        7.8550   -7.0830   36.8810 C.ar  119  HIS119      0.1154
     88  CE1        6.6380   -6.0600   38.3920 C.ar  119  HIS119      0.1986
     89  NE2        6.5780   -6.7640   37.2750 N.ar  119  HIS119     -0.2212
     90  N          9.5400   -3.8370   36.0600 N.am  120  PHE120     -0.1960
     91  CA         8.8020   -2.5870   36.1110 C.3   120  PHE120      0.1771
     92  C          7.4120   -2.9020   36.6420 C.2   120  PHE120      0.2619
     93  O          6.6580   -3.6350   36.0060 O.2   120  PHE120     -0.2715
     94  CB         8.6970   -1.9380   34.7240 C.3   120  PHE120      0.0574
     95  CG         8.1360   -0.5380   34.7660 C.ar  120  PHE120     -0.0200
     96  CD1        6.7680   -0.3270   34.7030 C.ar  120  PHE120     -0.0042
     97  CD2        8.9820    0.5550   34.8890 C.ar  120  PHE120     -0.0042
     98  CE1        6.2490    0.9640   34.7520 C.ar  120  PHE120     -0.0003
     99  CE2        8.4780    1.8500   34.9480 C.ar  120  PHE120     -0.0003
    100  CZ         7.1040    2.0530   34.8690 C.ar  120  PHE120     -0.0000
    101  N          7.0630   -2.3700   37.8070 N.am  121  ASP121     -0.1971
    102  CA         5.7940   -2.7510   38.4220 C.3   121  ASP121      0.1709
    103  C          4.6400   -1.8550   37.9700 C.2   121  ASP121      0.2293
    104  O          3.5840   -2.3500   37.5820 O.2   121  ASP121     -0.2864
    105  CB         5.9110   -2.7750   39.9530 C.3   121  ASP121      0.1436
    106  CG         4.9300   -3.7410   40.6010 C.2   121  ASP121      0.3671
    107  OD1        4.9090   -4.9290   40.2460 O.co2 121  ASP121     -0.2456
    108  OD2        4.1810   -3.3160   41.4810 O.co2 121  ASP121     -0.2456
@<TRIPOS>BOND
     1    40    41    1
     2    43    42    2
     3    41    42    1
     4    41    44    1
     5    44    45    1
     6    45    46    1
     7    49    50    1
     8    46    47    1
     9    63    61   am
    10    60    61    1
    11    60    57    1
    12    50    51    1
    13    50    53    1
    14    59    58    2
    15    61    62    2
    16    56    51   am
    17    56    57    1
    18    51    52    2
    19    24    23    2
    20    22    21    1
    21    22    23    1
    22    22    25    1
    23    57    58    1
    24    47    48    1
    25    55    53    1
    26    28    27    2
    27    23    30   am
    28    26    25    1
    29    26    27    1
    30    53    54    1
    31    27    29   am
    32    30    31    1
    33    31    32    1
    34    31    34    1
    35     4     3    2
    36    32    33    2
    37     9     8    1
    38     6     7    1
    39     6     5    1
    40     8     7    1
    41     2     3    1
    42     2     5    1
    43     2     1    1
    44     3    10   am
    45    36    38   ar
    46    36    35   ar
    47    13    12    2
    48    38    39   ar
    49    34    35    1
    50    35    37   ar
    51    12    11    1
    52    39    37   ar
    53    10    11    1
    54    11    14    1
    55    14    15    1
    56    17    15   ar
    57    17    19   ar
    58    15    16   ar
    59    19    20   ar
    60    96    98   ar
    61    96    95   ar
    62    94    95    1
    63    94    91    1
    64    98   100   ar
    65    95    97   ar
    66   100    99   ar
    67    16    18   ar
    68    97    99   ar
    69    20    18   ar
    70    93    92    2
    71    90    91    1
    72    90    82   am
    73    91    92    1
    74    76    75    2
    75    92   101   am
    76    87    89   ar
    77    87    85   ar
    78    81    82    1
    79    81    80    1
    80    81    84    1
    81    75    80   am
    82    75    74    1
    83    82    83    2
    84    89    88   ar
    85    74    73    1
    86    74    77    1
    87   104   103    2
    88    85    84    1
    89    85    86   ar
    90   101   102    1
    91   103   102    1
    92    88    86   ar
    93   102   105    1
    94    77    78    1
    95    77    79    1
    96    71    70    1
    97    71    72    1
    98    70    69    1
    99   105   106    1
   100   107   106   ar
   101   106   108   ar
   102    69    68    1
   103    68    65    1
   104    65    64    1
   105    65    66    1
   106    66    67    2
