@<TRIPOS>MOLECULE
tmp/3d91A00.pdb
 202 190 0 0 0
SMALL
GASTEIGER

@<TRIPOS>ATOM
      1  N          3.4550   10.3000  -11.6740 N.3    15  THR15      -0.1203
      2  CA         2.6200    9.3330  -10.9270 C.3    15  THR15       0.1994
      3  C          2.0610    9.9440   -9.6460 C.2    15  THR15       0.2617
      4  O          1.0140    9.5490   -9.1690 O.2    15  THR15      -0.2717
      5  CB         3.3720    7.9520  -10.5730 C.3    15  THR15       0.1784
      6  OG1        4.6430    8.2090   -9.9370 O.3    15  THR15      -0.2211
      7  CG2        3.6060    7.0960  -11.7970 C.3    15  THR15       0.0376
      8  N          2.7700   10.9360   -9.1130 N.am   16  GLN16      -0.1979
      9  CA         2.3580   11.6360   -7.9160 C.3    16  GLN16       0.1601
     10  C          2.0860   13.1280   -8.1990 C.2    16  GLN16       0.2287
     11  O          2.9460   13.8700   -8.6630 O.2    16  GLN16      -0.2864
     12  CB         3.4570   11.4930   -6.8750 C.3    16  GLN16       0.0394
     13  CG         3.9250   10.0520   -6.7100 C.3    16  GLN16       0.0908
     14  CD         4.7790    9.8780   -5.4950 C.2    16  GLN16       0.2608
     15  OE1        4.8280   10.7670   -4.6430 O.2    16  GLN16      -0.2717
     16  NE2        5.4650    8.7300   -5.3910 N.am   16  GLN16      -0.0878
     17  N         -2.3060   14.6110   -1.9040 N.3    33  VAL33      -0.1245
     18  CA        -2.9310   14.3450   -3.1830 C.3    33  VAL33       0.1561
     19  C         -4.4330   14.7530   -3.0280 C.2    33  VAL33       0.2260
     20  O         -5.0020   14.4640   -1.9530 O.2    33  VAL33      -0.2867
     21  CB        -2.7760   12.8030   -3.4890 C.3    33  VAL33       0.0252
     22  CG1       -3.8350   12.2860   -4.4250 C.3    33  VAL33       0.0019
     23  CG2       -1.3620   12.4660   -4.0180 C.3    33  VAL33       0.0019
     24  N         -7.8730   13.4890   -4.0440 N.3    35  ASP35      -0.1239
     25  CA        -8.3900   12.1740   -4.5550 C.3    35  ASP35       0.1674
     26  C         -9.8740   12.3060   -4.8240 C.2    35  ASP35       0.2266
     27  O        -10.6490   12.4250   -3.9060 O.2    35  ASP35      -0.2867
     28  CB        -8.1280   11.1680   -3.4600 C.3    35  ASP35       0.1410
     29  CG        -8.5470    9.7260   -3.8020 C.2    35  ASP35       0.3668
     30  OD1       -8.5600    9.3060   -4.9990 O.co2  35  ASP35      -0.2456
     31  OD2       -8.8400    9.0080   -2.8030 O.co2  35  ASP35      -0.2456
     32  N        -11.4040    9.7710   -5.9130 N.3    37  GLY37      -0.1210
     33  CA       -11.8620    8.3650   -5.6360 C.3    37  GLY37       0.1956
     34  C        -12.1270    7.9990   -4.1710 C.2    37  GLY37       0.2612
     35  O        -12.5980    6.9030   -3.8660 O.2    37  GLY37      -0.2717
     36  N        -11.8180    8.9190   -3.2590 N.am   38  SER38      -0.1952
     37  CA       -12.1070    8.7760   -1.8280 C.3    38  SER38       0.1924
     38  C        -12.6440   10.0860   -1.2440 C.2    38  SER38       0.2314
     39  O        -12.4680   11.1700   -1.8580 O.2    38  SER38      -0.2863
     40  CB       -10.8470    8.3430   -1.0800 C.3    38  SER38       0.2116
     41  OG       -10.1170    9.4330   -0.5510 O.3    38  SER38      -0.2180
     42  N         -7.4790    1.8430    0.7230 N.3    80  TYR80      -0.1227
     43  CA        -7.4230    2.2720   -0.6520 C.3    80  TYR80       0.1736
     44  C         -7.0290    1.0990   -1.4830 C.2    80  TYR80       0.2596
     45  O         -6.5510    0.1140   -0.9470 O.2    80  TYR80      -0.2718
     46  CB        -6.4070    3.3680   -0.8090 C.3    80  TYR80       0.0548
     47  CG        -6.7130    4.5760    0.0150 C.ar   80  TYR80      -0.0200
     48  CD1       -7.5490    5.5990   -0.4850 C.ar   80  TYR80      -0.0009
     49  CD2       -6.1330    4.7450    1.2750 C.ar   80  TYR80      -0.0009
     50  CE1       -7.8040    6.7650    0.2710 C.ar   80  TYR80       0.0417
     51  CE2       -6.3760    5.9200    2.0310 C.ar   80  TYR80       0.0417
     52  CZ        -7.2130    6.9070    1.5240 C.ar   80  TYR80       0.1957
     53  OH        -7.4490    8.0420    2.2800 O.3    80  TYR80      -0.2866
     54  N         -7.2480    1.1960   -2.7840 N.am   81  SER81      -0.1938
     55  CA        -6.8810    0.1290   -3.6930 C.3    81  SER81       0.2055
     56  C         -5.3980   -0.2200   -3.5350 C.2    81  SER81       0.2643
     57  O         -5.0250   -1.4070   -3.5520 O.2    81  SER81      -0.2714
     58  CB        -7.2160    0.5820   -5.0850 C.3    81  SER81       0.2130
     59  OG        -8.4550    1.2440   -4.9610 O.3    81  SER81      -0.2179
     60  N         -4.5670    0.8140   -3.3430 N.am   82  THR82      -0.1950
     61  CA        -3.1790    0.6320   -2.9380 C.3    82  THR82       0.1897
     62  C         -2.9290    1.3560   -1.6170 C.2    82  THR82       0.2313
     63  O         -2.6270    2.5770   -1.6110 O.2    82  THR82      -0.2863
     64  CB        -2.1700    1.2170   -3.9570 C.3    82  THR82       0.1794
     65  OG1       -2.3720    2.6120   -4.0580 O.3    82  THR82      -0.2208
     66  CG2       -2.3210    0.6010   -5.3170 C.3    82  THR82       0.0378
     67  N          2.3410    1.2940    0.4880 N.3   115  PRO115     -0.2102
     68  CA         3.0530    2.0270   -0.5370 C.3   115  PRO115      0.1504
     69  C          3.6180    3.3710   -0.1260 C.2   115  PRO115      0.2575
     70  O          4.1290    4.0630   -0.9820 O.2   115  PRO115     -0.2718
     71  CB         1.9620    2.2230   -1.5990 C.3   115  PRO115      0.0282
     72  CG         0.6720    2.3220   -0.8040 C.3   115  PRO115      0.0208
     73  CD         0.9290    1.7050    0.5530 C.3   115  PRO115      0.0893
     74  N          3.5770    3.7300    1.1510 N.am  116  PHE116     -0.1977
     75  CA         3.7950    5.1560    1.5660 C.3   116  PHE116      0.1639
     76  C          5.2250    5.6640    1.6840 C.2   116  PHE116      0.2290
     77  O          5.4740    6.8720    1.6220 O.2   116  PHE116     -0.2864
     78  CB         2.9730    5.5030    2.8070 C.3   116  PHE116      0.0560
     79  CG         1.5040    5.4910    2.5370 C.ar  116  PHE116     -0.0200
     80  CD1        0.8870    6.6020    1.9970 C.ar  116  PHE116     -0.0042
     81  CD2        0.7540    4.3430    2.7400 C.ar  116  PHE116     -0.0042
     82  CE1       -0.4440    6.5990    1.6810 C.ar  116  PHE116     -0.0003
     83  CE2       -0.5820    4.3270    2.4090 C.ar  116  PHE116     -0.0003
     84  CZ        -1.1920    5.5130    1.8740 C.ar  116  PHE116     -0.0000
     85  N          7.2210    5.6390   -0.4340 N.3   118  LEU118     -0.1231
     86  CA         7.5370    6.1600   -1.7750 C.3   118  LEU118      0.1693
     87  C          6.7940    7.4650   -2.0670 C.2   118  LEU118      0.2591
     88  O          7.0380    8.1120   -3.0900 O.2   118  LEU118     -0.2718
     89  CB         7.2050    5.1330   -2.8610 C.3   118  LEU118      0.0284
     90  CG         7.8170    3.7480   -2.6160 C.3   118  LEU118      0.0019
     91  CD1        7.4600    2.7300   -3.7630 C.3   118  LEU118      0.0001
     92  CD2        9.3340    3.8080   -2.3480 C.3   118  LEU118      0.0001
     93  N          5.9010    7.8450   -1.1600 N.am  119  ALA119     -0.1980
     94  CA         5.0150    8.9630   -1.3890 C.3   119  ALA119      0.1597
     95  C          5.8320   10.2260   -1.1680 C.2   119  ALA119      0.2287
     96  O          6.4210   10.3810   -0.1140 O.2   119  ALA119     -0.2864
     97  CB         3.8700    8.9030   -0.4210 C.3   119  ALA119      0.0319
     98  N          4.2940   13.0750   -1.1740 N.3   121  PHE121     -0.1241
     99  CA         3.2600   13.7150   -0.3820 C.3   121  PHE121      0.1605
    100  C          3.1650   13.0920    1.0050 C.2   121  PHE121      0.2264
    101  O          3.5880   11.9380    1.2290 O.2   121  PHE121     -0.2867
    102  CB         1.9110   13.6060   -1.1350 C.3   121  PHE121      0.0534
    103  CG         1.5090   12.1670   -1.5040 C.ar  121  PHE121     -0.0203
    104  CD1        1.8740   11.6070   -2.7220 C.ar  121  PHE121     -0.0042
    105  CD2        0.7280   11.3880   -0.6350 C.ar  121  PHE121     -0.0042
    106  CE1        1.5000   10.2470   -3.0450 C.ar  121  PHE121     -0.0003
    107  CE2        0.3700   10.0350   -0.9550 C.ar  121  PHE121     -0.0003
    108  CZ         0.7600    9.4800   -2.1470 C.ar  121  PHE121     -0.0000
    109  N         -3.5480   13.1880    2.0220 N.3   124  VAL124     -0.1245
    110  CA        -4.5550   13.1650    1.0070 C.3   124  VAL124      0.1561
    111  C         -5.8610   13.9210    1.3890 C.2   124  VAL124      0.2260
    112  O         -6.2140   14.1230    2.5190 O.2   124  VAL124     -0.2867
    113  CB        -4.8750   11.6620    0.4310 C.3   124  VAL124      0.0252
    114  CG1       -4.0160   10.5480    1.0700 C.3   124  VAL124      0.0019
    115  CG2       -6.3580   11.4220    0.3530 C.3   124  VAL124      0.0019
    116  N        -14.6950    5.2830  -13.3540 N.3   217  LEU217     -0.1245
    117  CA       -14.4240    6.1410  -12.2500 C.3   217  LEU217      0.1561
    118  C        -13.4230    7.1540  -12.7130 C.2   217  LEU217      0.2260
    119  O        -12.3720    6.7740  -13.2120 O.2   217  LEU217     -0.2867
    120  CB       -13.7970    5.3320  -11.1610 C.3   217  LEU217      0.0270
    121  CG       -14.0330    5.7910   -9.7490 C.3   217  LEU217      0.0019
    122  CD1      -15.5130    5.9810   -9.4020 C.3   217  LEU217      0.0001
    123  CD2      -13.3570    4.7230   -8.9310 C.3   217  LEU217      0.0001
    124  N        -10.7440    9.3010  -11.4650 N.3   219  ASP219     -0.1239
    125  CA       -10.0410    9.3260  -10.1800 C.3   219  ASP219      0.1674
    126  C         -8.7400   10.0710  -10.2630 C.2   219  ASP219      0.2266
    127  O         -7.7900    9.6210  -10.9050 O.2   219  ASP219     -0.2867
    128  CB        -9.7640    7.9050   -9.6810 C.3   219  ASP219      0.1410
    129  CG        -9.3500    7.8440   -8.2180 C.2   219  ASP219      0.3668
    130  OD1       -9.2690    8.8730   -7.4750 O.co2 219  ASP219     -0.2456
    131  OD2       -9.0750    6.6990   -7.8060 O.co2 219  ASP219     -0.2456
    132  N         -6.8400   10.6380   -7.9850 N.3   221  GLY221     -0.1210
    133  CA        -5.9020   10.0430   -7.0520 C.3   221  GLY221      0.1956
    134  C         -5.3310    8.7010   -7.5230 C.2   221  GLY221      0.2612
    135  O         -4.8000    7.9380   -6.7170 O.2   221  GLY221     -0.2717
    136  N         -5.4230    8.4130   -8.8170 N.am  222  ALA222     -0.1965
    137  CA        -4.7910    7.2010   -9.3420 C.3   222  ALA222      0.1728
    138  C         -3.7590    7.6720  -10.3380 C.2   222  ALA222      0.2617
    139  O         -4.0520    8.5290  -11.1840 O.2   222  ALA222     -0.2715
    140  CB        -5.7950    6.2890  -10.0160 C.3   222  ALA222      0.0334
    141  N         -2.5470    7.1440  -10.2140 N.am  223  SER223     -0.1936
    142  CA        -1.5080    7.4420  -11.1820 C.3   223  SER223      0.2055
    143  C         -1.8350    6.9140  -12.5770 C.2   223  SER223      0.2643
    144  O         -1.3710    7.4670  -13.5810 O.2   223  SER223     -0.2714
    145  CB        -0.1790    6.8640  -10.7370 C.3   223  SER223      0.2130
    146  OG        -0.0020    6.9480   -9.3410 O.3   223  SER223     -0.2179
    147  N         -2.5920    5.8200  -12.6680 N.am  224  TYR224     -0.1973
    148  CA        -2.8310    5.2200  -14.0140 C.3   224  TYR224      0.1639
    149  C         -4.2990    5.0350  -14.3810 C.2   224  TYR224      0.2290
    150  O         -5.2060    5.2430  -13.5500 O.2   224  TYR224     -0.2864
    151  CB        -2.1280    3.8570  -14.1910 C.3   224  TYR224      0.0560
    152  CG        -0.6160    3.7460  -14.1080 C.ar  224  TYR224     -0.0198
    153  CD1       -0.0520    2.4840  -14.0560 C.ar  224  TYR224     -0.0009
    154  CD2        0.2630    4.8610  -14.0900 C.ar  224  TYR224     -0.0009
    155  CE1        1.2900    2.2680  -13.9900 C.ar  224  TYR224      0.0417
    156  CE2        1.6790    4.6570  -14.0100 C.ar  224  TYR224      0.0417
    157  CZ         2.1610    3.2990  -13.9580 C.ar  224  TYR224      0.1957
    158  OH         3.4810    2.9150  -13.8640 O.3   224  TYR224     -0.2866
    159  N         -6.8640    2.1290  -14.8990 N.3   226  SER226     -0.1217
    160  CA        -7.0240    0.7410  -14.5010 C.3   226  SER226      0.1889
    161  C         -8.2790    0.1580  -15.1060 C.2   226  SER226      0.2288
    162  O         -9.2100    0.8810  -15.4310 O.2   226  SER226     -0.2866
    163  CB        -7.0350    0.5750  -12.9680 C.3   226  SER226      0.2089
    164  OG        -8.2900    0.8860  -12.3890 O.3   226  SER226     -0.2183
    165  N         -2.8860   -0.5900  -15.8550 N.3   294  HIS294     -0.1241
    166  CA        -2.7670   -1.8060  -15.0460 C.3   294  HIS294      0.1621
    167  C         -4.1030   -2.4020  -14.5290 C.2   294  HIS294      0.2264
    168  O         -5.1780   -1.8570  -14.7800 O.2   294  HIS294     -0.2867
    169  CB        -1.6990   -1.6430  -13.9400 C.3   294  HIS294      0.0745
    170  CG        -2.0350   -0.6500  -12.8750 C.ar  294  HIS294      0.0817
    171  ND1       -3.1120    0.2110  -12.9490 N.ar  294  HIS294     -0.2268
    172  CD2       -1.3930   -0.3450  -11.7220 C.ar  294  HIS294      0.1154
    173  CE1       -3.1560    0.9580  -11.8580 C.ar  294  HIS294      0.1986
    174  NE2       -2.1190    0.6500  -11.1020 N.ar  294  HIS294     -0.2212
    175  N         -6.7110   -3.5260  -11.6290 N.3   296  MET296     -0.1245
    176  CA        -7.0760   -3.0490  -10.3220 C.3   296  MET296      0.1570
    177  C         -8.5280   -3.4260  -10.1270 C.2   296  MET296      0.2261
    178  O         -9.4260   -2.7450  -10.6420 O.2   296  MET296     -0.2867
    179  CB        -6.8680   -1.5210  -10.2410 C.3   296  MET296      0.0387
    180  CG        -6.4630   -0.9790   -8.8820 C.3   296  MET296      0.0595
    181  SD        -5.0740   -1.8530   -8.1120 S.3   296  MET296     -0.1393
    182  CE        -3.7540   -1.4730   -9.2380 C.3   296  MET296      0.0692
    183  N        -11.6210   -3.3560   -8.2920 N.3   298  ILE298     -0.1245
    184  CA       -12.3600   -2.5990   -7.3010 C.3   298  ILE298      0.1561
    185  C        -13.6340   -3.3890   -6.9270 C.2   298  ILE298      0.2260
    186  O        -14.4380   -3.7200   -7.8050 O.2   298  ILE298     -0.2867
    187  CB       -12.6520   -1.1480   -7.8180 C.3   298  ILE298      0.0252
    188  CG1      -11.3370   -0.4720   -8.2480 C.3   298  ILE298      0.0019
    189  CG2      -13.3700   -0.3070   -6.7580 C.3   298  ILE298      0.0019
    190  CD1      -11.4260    0.3430   -9.5260 C.3   298  ILE298      0.0001
    191  N        -19.0190   -0.0250   -5.9220 N.3   302  THR302     -0.1218
    192  CA       -18.3300    0.7790   -6.9320 C.3   302  THR302      0.1862
    193  C        -17.8480   -0.0830   -8.1010 C.2   302  THR302      0.2287
    194  O        -18.0820    0.2350   -9.2680 O.2   302  THR302     -0.2866
    195  CB       -17.1410    1.4970   -6.3000 C.3   302  THR302      0.1770
    196  OG1      -17.5640    2.0750   -5.0630 O.3   302  THR302     -0.2211
    197  CG2      -16.5740    2.5530   -7.2270 C.3   302  THR302      0.0375
    198  N        -10.9130    2.8160  -13.7860 N.3   307  ALA307     -0.1245
    199  CA       -10.5950    4.1250  -13.1990 C.3   307  ALA307      0.1562
    200  C         -9.8760    4.8920  -14.2610 C.2   307  ALA307      0.2260
    201  O         -8.9790    4.3280  -14.8690 O.2   307  ALA307     -0.2867
    202  CB        -9.6980    3.9710  -12.0410 C.3   307  ALA307      0.0290
@<TRIPOS>BOND
     1   165   166    1
     2   162   161    2
     3   161   160    1
     4   166   167    1
     5   166   169    1
     6   159   160    1
     7   201   200    2
     8   168   167    2
     9   160   163    1
    10   149   148    1
    11   149   150    2
    12   200   199    1
    13   151   152    1
    14   151   148    1
    15   152   154   ar
    16   152   153   ar
    17   154   156   ar
    18   153   155   ar
    19   148   147    1
    20   156   157   ar
    21   155   157   ar
    22   157   158    1
    23   169   170    1
    24   198   199    1
    25   144   143    2
    26   116   117    1
    27   119   118    2
    28   199   202    1
    29   163   164    1
    30   171   170   ar
    31   171   173   ar
    32   170   172   ar
    33   118   117    1
    34   147   143   am
    35   143   142    1
    36   117   120    1
    37   173   174   ar
    38     7     5    1
    39   172   174   ar
    40     1     2    1
    41   175   176    1
    42   124   125    1
    43   139   138    2
    44   142   145    1
    45   142   141    1
    46   120   121    1
    47     2     5    1
    48     2     3    1
    49   127   126    2
    50   145   146    1
    51   178   177    2
    52     5     6    1
    53   138   141   am
    54   138   137    1
    55   176   179    1
    56   176   177    1
    57   126   125    1
    58   179   180    1
    59   125   128    1
    60   140   137    1
    61   121   122    1
    62   121   123    1
    63   128   129    1
    64     3     4    2
    65     3     8   am
    66   190   188    1
    67   137   136    1
    68   194   193    2
    69   182   181    1
    70     8     9    1
    71   180   181    1
    72   136   134   am
    73    11    10    2
    74   183   184    1
    75   188   187    1
    76   129   131   ar
    77   129   130   ar
    78    10     9    1
    79   193   192    1
    80   132   133    1
    81     9    12    1
    82   187   184    1
    83   187   189    1
    84   186   185    2
    85   134   133    1
    86   134   135    2
    87   184   185    1
    88   197   195    1
    89   192   195    1
    90   192   191    1
    91    12    13    1
    92    13    14    1
    93   195   196    1
    94    32    33    1
    95    33    34    1
    96    14    16   am
    97    14    15    2
    98    66    64    1
    99    58    59    1
   100    58    55    1
   101    30    29   ar
   102    26    25    1
   103    26    27    2
   104    25    24    1
   105    25    28    1
   106    22    21    1
   107    34    35    2
   108    34    36   am
   109    65    64    1
   110    23    21    1
   111    64    61    1
   112    29    28    1
   113    29    31   ar
   114    91    90    1
   115    55    56    1
   116    55    54    1
   117    57    56    2
   118    56    60   am
   119    21    18    1
   120    60    61    1
   121    36    37    1
   122    18    19    1
   123    18    17    1
   124    88    87    2
   125   106   104   ar
   126   106   108   ar
   127    19    20    2
   128    61    62    1
   129    89    90    1
   130    89    86    1
   131    54    44   am
   132   104   103   ar
   133    90    92    1
   134   108   107   ar
   135    87    86    1
   136    87    93   am
   137    39    38    2
   138    37    38    1
   139    37    40    1
   140    86    85    1
   141    62    63    2
   142    71    72    1
   143    71    68    1
   144   103   102    1
   145   103   105   ar
   146    44    45    2
   147    44    43    1
   148    94    95    1
   149    94    93    1
   150    94    97    1
   151    98    99    1
   152    95    96    2
   153   102    99    1
   154    40    41    1
   155    70    69    2
   156   107   105   ar
   157    46    43    1
   158    46    47    1
   159    72    73    1
   160    43    42    1
   161    68    69    1
   162    68    67    1
   163    48    47   ar
   164    48    50   ar
   165    99   100    1
   166    69    74   am
   167    47    49   ar
   168    50    52   ar
   169   115   113    1
   170   113   110    1
   171   113   114    1
   172    67    73    1
   173   100   101    2
   174   110   111    1
   175   110   109    1
   176    74    75    1
   177    49    51   ar
   178   111   112    2
   179    52    51   ar
   180    52    53    1
   181    75    76    1
   182    75    78    1
   183    77    76    2
   184    82    84   ar
   185    82    80   ar
   186    84    83   ar
   187    80    79   ar
   188    83    81   ar
   189    79    81   ar
   190    79    78    1
