@<TRIPOS>MOLECULE
tmp/3d94A00.pdb
 209 197 0 0 0
SMALL
GASTEIGER

@<TRIPOS>ATOM
      1  N         16.5940   14.2080   -2.8170 N.3    20  LEU20      -0.1231
      2  CA        17.8950   14.0040   -2.1590 C.3    20  LEU20       0.1693
      3  C         18.3940   15.2700   -1.4410 C.2    20  LEU20       0.2593
      4  O         19.4070   15.2460   -0.7320 O.2    20  LEU20      -0.2718
      5  CB        18.9430   13.5030   -3.1680 C.3    20  LEU20       0.0284
      6  CG        18.6340   12.1980   -3.9180 C.3    20  LEU20       0.0019
      7  CD1       19.6350   11.9570   -5.0200 C.3    20  LEU20       0.0001
      8  CD2       18.5540   10.9860   -2.9620 C.3    20  LEU20       0.0001
      9  N         17.6830   16.3730   -1.6260 N.am   21  GLY21      -0.1942
     10  CA        18.0430   17.6210   -0.9750 C.3    21  GLY21       0.2014
     11  C         18.2470   18.7620   -1.9430 C.2    21  GLY21       0.2639
     12  O         18.5710   18.5750   -3.1230 O.2    21  GLY21      -0.2714
     13  N         18.0390   19.9550   -1.4210 N.am   22  GLN22      -0.1963
     14  CA        18.1720   21.1890   -2.1590 C.3    22  GLN22       0.1733
     15  C         19.6470   21.5800   -2.2380 C.2    22  GLN22       0.2616
     16  O         20.2540   21.9450   -1.2360 O.2    22  GLN22      -0.2715
     17  CB        17.3630   22.2810   -1.4400 C.3    22  GLN22       0.0408
     18  CG        17.4240   23.6730   -2.0650 C.3    22  GLN22       0.0908
     19  CD        16.2930   23.9470   -3.0380 C.2    22  GLN22       0.2608
     20  OE1       15.2820   23.2470   -3.0680 O.2    22  GLN22      -0.2717
     21  NE2       16.4490   24.9960   -3.8200 N.am   22  GLN22      -0.0878
     22  N         20.2100   21.5040   -3.4350 N.am   23  GLY23      -0.1955
     23  CA        21.5630   21.9700   -3.6800 C.3    23  GLY23       0.1869
     24  C         21.5030   23.3690   -4.2340 C.2    23  GLY23       0.2309
     25  O         20.5090   24.0830   -4.0310 O.2    23  GLY23      -0.2863
     26  N         20.9470   26.0180   -7.2250 N.3    25  PHE25      -0.1241
     27  CA        19.9560   26.1010   -8.3140 C.3    25  PHE25       0.1605
     28  C         18.6410   25.3430   -8.1330 C.2    25  PHE25       0.2264
     29  O         17.6550   25.6670   -8.7920 O.2    25  PHE25      -0.2867
     30  CB        20.5820   25.7760   -9.6720 C.3    25  PHE25       0.0534
     31  CG        21.6720   26.7210  -10.0730 C.ar   25  PHE25      -0.0203
     32  CD1       21.3670   27.9200  -10.7330 C.ar   25  PHE25      -0.0042
     33  CD2       22.9990   26.4370   -9.7810 C.ar   25  PHE25      -0.0042
     34  CE1       22.3780   28.7960  -11.1070 C.ar   25  PHE25      -0.0003
     35  CE2       24.0110   27.3190  -10.1470 C.ar   25  PHE25      -0.0003
     36  CZ        23.6970   28.4970  -10.8080 C.ar   25  PHE25      -0.0000
     37  N         17.5030   18.2150   -5.8740 N.3    28  VAL28      -0.1245
     38  CA        18.1010   17.0240   -6.4590 C.3    28  VAL28       0.1561
     39  C         17.1950   15.8260   -6.1460 C.2    28  VAL28       0.2260
     40  O         16.6590   15.7120   -5.0480 O.2    28  VAL28      -0.2867
     41  CB        19.5880   16.8130   -5.9890 C.3    28  VAL28       0.0252
     42  CG1       20.3150   15.7310   -6.8350 C.3    28  VAL28       0.0019
     43  CG2       20.3640   18.1570   -6.0230 C.3    28  VAL28       0.0019
     44  N         21.5130   10.9620  -10.2910 N.3    46  ALA46      -0.1245
     45  CA        21.0350   12.1250   -9.5530 C.3    46  ALA46       0.1562
     46  C         20.5740   13.1910  -10.5600 C.2    46  ALA46       0.2260
     47  O         21.3020   13.5230  -11.5070 O.2    46  ALA46      -0.2867
     48  CB        22.1100   12.6610   -8.6350 C.3    46  ALA46       0.0290
     49  N         19.3400   17.1020  -10.7770 N.3    48  LYS48      -0.1245
     50  CA        19.1010   18.4390  -10.2250 C.3    48  LYS48       0.1561
     51  C         18.1400   19.2120  -11.1320 C.2    48  LYS48       0.2260
     52  O         18.3130   19.2420  -12.3420 O.2    48  LYS48      -0.2867
     53  CB        20.4230   19.2090  -10.0450 C.3    48  LYS48       0.0271
     54  CG        20.2730   20.6230   -9.4340 C.3    48  LYS48       0.0035
     55  CD        21.6340   21.2590   -9.1120 C.3    48  LYS48       0.0206
     56  CE        22.1390   20.8260   -7.7460 C.3    48  LYS48       0.1093
     57  NZ        23.5250   21.2510   -7.4670 N.3    48  LYS48      -0.1314
     58  N         22.2860   28.1600  -14.7080 N.3    62  PHE62      -0.1241
     59  CA        22.2400   26.7610  -14.2630 C.3    62  PHE62       0.1605
     60  C         22.9530   25.8820  -15.2640 C.2    62  PHE62       0.2264
     61  O         23.8820   25.1700  -14.9030 O.2    62  PHE62      -0.2867
     62  CB        20.7720   26.3380  -14.0950 C.3    62  PHE62       0.0534
     63  CG        20.5480   24.8770  -13.7600 C.ar   62  PHE62      -0.0203
     64  CD1       21.1610   24.2790  -12.6590 C.ar   62  PHE62      -0.0042
     65  CD2       19.6410   24.1210  -14.5120 C.ar   62  PHE62      -0.0042
     66  CE1       20.9030   22.9360  -12.3270 C.ar   62  PHE62      -0.0003
     67  CE2       19.3870   22.7810  -14.2030 C.ar   62  PHE62      -0.0003
     68  CZ        20.0160   22.1840  -13.0940 C.ar   62  PHE62      -0.0000
     69  N         26.8480   27.0190  -16.0100 N.3    65  GLU65      -0.1231
     70  CA        27.7300   26.6100  -14.9070 C.3    65  GLU65       0.1699
     71  C         27.9280   25.0850  -14.8480 C.2    65  GLU65       0.2592
     72  O         29.0340   24.6030  -14.5930 O.2    65  GLU65      -0.2718
     73  CB        27.2300   27.1510  -13.5610 C.3    65  GLU65       0.0402
     74  CG        27.1260   28.6800  -13.4900 C.3    65  GLU65       0.1161
     75  CD        28.4700   29.4100  -13.3320 C.2    65  GLU65       0.3649
     76  OE1       29.5480   28.7790  -13.3260 O.co2  65  GLU65      -0.2457
     77  OE2       28.4360   30.6500  -13.2050 O.co2  65  GLU65      -0.2457
     78  N         26.8570   24.3370  -15.0910 N.am   66  ALA66      -0.1980
     79  CA        26.9340   22.8830  -15.1360 C.3    66  ALA66       0.1597
     80  C         27.7520   22.3900  -16.3260 C.2    66  ALA66       0.2287
     81  O         28.4550   21.3900  -16.2170 O.2    66  ALA66      -0.2864
     82  CB        25.5510   22.2770  -15.1610 C.3    66  ALA66       0.0319
     83  N         31.3420   20.9380  -16.6640 N.3    69  MET69      -0.1245
     84  CA        31.5760   19.5330  -16.3350 C.3    69  MET69       0.1570
     85  C         31.6580   18.6210  -17.5490 C.2    69  MET69       0.2261
     86  O         32.0140   17.4450  -17.4210 O.2    69  MET69      -0.2867
     87  CB        30.4970   19.0240  -15.3740 C.3    69  MET69       0.0387
     88  CG        30.5040   19.7150  -14.0220 C.3    69  MET69       0.0595
     89  SD        29.1660   19.1650  -12.9700 S.3    69  MET69      -0.1393
     90  CE        29.9000   17.6670  -12.4120 C.3    69  MET69       0.0692
     91  N         32.4740   14.0770   -9.2120 N.3    78  VAL78      -0.1245
     92  CA        31.1650   13.5780   -9.6370 C.3    78  VAL78       0.1561
     93  C         30.9320   13.9410  -11.1170 C.2    78  VAL78       0.2260
     94  O         31.0600   15.0970  -11.5140 O.2    78  VAL78      -0.2867
     95  CB        30.0080   14.1370   -8.7380 C.3    78  VAL78       0.0252
     96  CG1       28.6540   13.6010   -9.1740 C.3    78  VAL78       0.0019
     97  CG2       30.2610   13.8520   -7.2390 C.3    78  VAL78       0.0019
     98  N         19.7110   18.7780  -14.8790 N.3    92  VAL92      -0.1245
     99  CA        21.1010   18.3270  -15.0070 C.3    92  VAL92       0.1561
    100  C         21.1910   16.8860  -14.4610 C.2    92  VAL92       0.2260
    101  O         20.8240   16.6330  -13.3140 O.2    92  VAL92      -0.2867
    102  CB        22.0840   19.3250  -14.2850 C.3    92  VAL92       0.0252
    103  CG1       23.4230   18.6970  -13.9830 C.3    92  VAL92       0.0019
    104  CG2       22.2830   20.5910  -15.1420 C.3    92  VAL92       0.0019
    105  N         23.3260   13.6560  -13.2500 N.3    94  MET94      -0.1230
    106  CA        24.6680   13.3360  -12.7600 C.3    94  MET94       0.1702
    107  C         24.8280   11.9180  -12.2000 C.2    94  MET94       0.2592
    108  O         23.8520   11.2270  -11.8980 O.2    94  MET94      -0.2718
    109  CB        25.0870   14.3320  -11.6950 C.3    94  MET94       0.0401
    110  CG        24.8860   15.7820  -12.0790 C.3    94  MET94       0.0596
    111  SD        26.3300   16.7100  -12.5180 S.3    94  MET94      -0.1393
    112  CE        27.5370   16.0840  -11.3630 C.3    94  MET94       0.0692
    113  N         26.0850   11.5130  -12.0730 N.am   95  GLU95      -0.1966
    114  CA        26.4620   10.3000  -11.3920 C.3    95  GLU95       0.1733
    115  C         25.8410   10.2920   -9.9910 C.2    95  GLU95       0.2616
    116  O         25.9640   11.2660   -9.2360 O.2    95  GLU95      -0.2715
    117  CB        27.9850   10.2470  -11.2980 C.3    95  GLU95       0.0429
    118  CG        28.5440    9.0170  -10.6270 C.3    95  GLU95       0.1163
    119  CD        30.0220    9.1530  -10.3120 C.2    95  GLU95       0.3649
    120  OE1       30.5290    8.2940   -9.5590 O.co2  95  GLU95      -0.2457
    121  OE2       30.6760   10.1060  -10.8050 O.co2  95  GLU95      -0.2457
    122  N         25.1700    9.1950   -9.6480 N.am   96  LEU96      -0.1963
    123  CA        24.4860    9.1030   -8.3640 C.3    96  LEU96       0.1728
    124  C         25.4840    8.7410   -7.2780 C.2    96  LEU96       0.2616
    125  O         26.1920    7.7410   -7.3870 O.2    96  LEU96      -0.2715
    126  CB        23.3120    8.1070   -8.4170 C.3    96  LEU96       0.0311
    127  CG        22.4510    7.8540   -7.1700 C.3    96  LEU96       0.0022
    128  CD1       21.8000    9.1230   -6.6150 C.3    96  LEU96       0.0001
    129  CD2       21.3790    6.8050   -7.4730 C.3    96  LEU96       0.0001
    130  N         25.5390    9.5810   -6.2480 N.am   97  MET97      -0.1977
    131  CA        26.3720    9.3450   -5.0690 C.3    97  MET97       0.1605
    132  C         25.4610    8.8520   -3.9630 C.2    97  MET97       0.2287
    133  O         24.8040    9.6360   -3.2830 O.2    97  MET97      -0.2864
    134  CB        27.1220   10.6230   -4.6670 C.3    97  MET97       0.0413
    135  CG        27.9150   11.2410   -5.8240 C.3    97  MET97       0.0598
    136  SD        29.2470   10.1810   -6.4750 S.3    97  MET97      -0.1393
    137  CE        30.2210    9.9810   -4.9910 C.3    97  MET97       0.0692
    138  N         25.2880    9.9810   -0.1790 N.3   100  GLY100     -0.1210
    139  CA        25.0490   11.3970    0.0930 C.3   100  GLY100      0.1956
    140  C         26.3160   12.1970    0.3730 C.2   100  GLY100      0.2611
    141  O         27.4510   11.7670    0.0700 O.2   100  GLY100     -0.2717
    142  N         26.1190   13.3800    0.9400 N.am  101  ASP101     -0.1973
    143  CA        27.2250   14.3040    1.1770 C.3   101  ASP101      0.1709
    144  C         28.1120   13.8560    2.3490 C.2   101  ASP101      0.2293
    145  O         27.6330   13.2320    3.2940 O.2   101  ASP101     -0.2864
    146  CB        26.7080   15.7390    1.3700 C.3   101  ASP101      0.1436
    147  CG        26.0310   15.9510    2.7150 C.2   101  ASP101      0.3671
    148  OD1       24.8490   15.5500    2.8830 O.co2 101  ASP101     -0.2456
    149  OD2       26.6710   16.5600    3.5970 O.co2 101  ASP101     -0.2456
    150  N         27.1130   14.9300    6.2160 N.3   104  SER104     -0.1217
    151  CA        26.0470   14.1000    6.7900 C.3   104  SER104      0.1889
    152  C         26.5640   12.7030    7.1260 C.2   104  SER104      0.2288
    153  O         26.2040   12.1240    8.1670 O.2   104  SER104     -0.2866
    154  CB        24.8900   13.9470    5.7940 C.3   104  SER104      0.2089
    155  OG        24.2420   15.1740    5.5320 O.3   104  SER104     -0.2183
    156  N         30.1130   19.2920    3.1580 N.3   143  ARG143     -0.1231
    157  CA        28.7450   19.3100    2.5680 C.3   143  ARG143      0.1694
    158  C         28.7370   19.1690    1.0460 C.2   143  ARG143      0.2592
    159  O         27.7550   18.7330    0.4730 O.2   143  ARG143     -0.2718
    160  CB        27.9590   20.5600    2.9890 C.3   143  ARG143      0.0321
    161  CG        28.5060   21.8460    2.4090 C.3   143  ARG143      0.0489
    162  CD        27.6700   23.0920    2.6850 C.3   143  ARG143      0.2205
    163  NE        28.4670   24.2560    2.2990 N.pl3 143  ARG143     -0.0865
    164  CZ        29.3590   24.8460    3.0920 C.cat 143  ARG143      0.5346
    165  NH1       29.5230   24.4190    4.3400 N.pl3 143  ARG143      0.1354
    166  NH2       30.0690   25.8750    2.6440 N.pl3 143  ARG143      0.1354
    167  N         29.8500   19.5250    0.4000 N.am  144  ASN144     -0.1974
    168  CA        29.9690   19.5150   -1.0700 C.3   144  ASN144      0.1688
    169  C         30.9330   18.4500   -1.5900 C.2   144  ASN144      0.2292
    170  O         31.3070   18.4310   -2.7820 O.2   144  ASN144     -0.2864
    171  CB        30.3820   20.9000   -1.5820 C.3   144  ASN144      0.1181
    172  CG        29.2880   21.9340   -1.4200 C.2   144  ASN144      0.2629
    173  OD1       28.1050   21.6180   -1.5000 O.2   144  ASN144     -0.2716
    174  ND2       29.6790   23.1810   -1.1910 N.am  144  ASN144     -0.0877
    175  N         34.4250   15.0530   -5.4560 N.3   154  ILE154     -0.1231
    176  CA        34.1090   16.4770   -5.4120 C.3   154  ILE154      0.1692
    177  C         32.7450   16.7660   -6.0210 C.2   154  ILE154      0.2593
    178  O         32.4720   16.3810   -7.1540 O.2   154  ILE154     -0.2718
    179  CB        35.1870   17.3250   -6.1470 C.3   154  ILE154      0.0266
    180  CG1       36.6070   16.9280   -5.7000 C.3   154  ILE154      0.0019
    181  CG2       34.9030   18.8300   -5.9680 C.3   154  ILE154      0.0020
    182  CD1       36.8680   17.0540   -4.1850 C.3   154  ILE154      0.0001
    183  N         31.8860   17.4360   -5.2620 N.am  155  GLY155     -0.1942
    184  CA        30.5480   17.7670   -5.7370 C.3   155  GLY155      0.2014
    185  C         30.2640   19.2560   -5.9380 C.2   155  GLY155      0.2639
    186  O         31.1270   20.0260   -6.3760 O.2   155  GLY155     -0.2714
    187  N         29.0410   19.6330   -5.5760 N.am  156  ASP156     -0.1957
    188  CA        28.4240   20.9200   -5.8880 C.3   156  ASP156      0.1840
    189  C         29.3510   22.1250   -5.7480 C.2   156  ASP156      0.2622
    190  O         29.8010   22.4570   -4.6470 O.2   156  ASP156     -0.2715
    191  CB        27.1650   21.0960   -5.0140 C.3   156  ASP156      0.1450
    192  CG        26.2600   22.2310   -5.4840 C.2   156  ASP156      0.3671
    193  OD1       25.3440   22.5970   -4.7330 O.co2 156  ASP156     -0.2456
    194  OD2       26.4500   22.7730   -6.5840 O.co2 156  ASP156     -0.2456
    195  N         29.6170   22.7760   -6.8740 N.am  157  PHE157     -0.1960
    196  CA        30.3430   24.0670   -6.9030 C.3   157  PHE157      0.1771
    197  C         29.4220   25.2740   -7.1520 C.2   157  PHE157      0.2620
    198  O         29.8850   26.4130   -7.2130 O.2   157  PHE157     -0.2715
    199  CB        31.4730   24.0390   -7.9550 C.3   157  PHE157      0.0574
    200  CG        31.0140   23.6680   -9.3480 C.ar  157  PHE157     -0.0200
    201  CD1       30.4700   24.6350  -10.2060 C.ar  157  PHE157     -0.0042
    202  CD2       31.1500   22.3550   -9.8160 C.ar  157  PHE157     -0.0042
    203  CE1       30.0440   24.3060  -11.4990 C.ar  157  PHE157     -0.0003
    204  CE2       30.7360   22.0020  -11.1120 C.ar  157  PHE157     -0.0003
    205  CZ        30.1710   22.9830  -11.9510 C.ar  157  PHE157     -0.0000
    206  N         28.1210   25.0320   -7.3030 N.am  158  GLY158     -0.1954
    207  CA        27.2120   26.0970   -7.7220 C.3   158  GLY158      0.1869
    208  C         26.7560   27.1170   -6.6840 C.2   158  GLY158      0.2309
    209  O         26.2530   28.1680   -7.0530 O.2   158  GLY158     -0.2863
@<TRIPOS>BOND
     1    85    86    2
     2    85    84    1
     3    83    84    1
     4    84    87    1
     5    80    81    2
     6    80    79    1
     7    69    70    1
     8    87    88    1
     9    60    61    2
    10    60    59    1
    11    82    79    1
    12   104   102    1
    13    79    78    1
    14    78    71   am
    15    99    98    1
    16    99   100    1
    17    99   102    1
    18    70    71    1
    19    70    73    1
    20    71    72    2
    21    58    59    1
    22    65    67   ar
    23    65    63   ar
    24   100   101    2
    25   102   103    1
    26    59    62    1
    27    67    68   ar
    28    62    63    1
    29    88    89    1
    30    63    64   ar
    31    73    74    1
    32    74    75    1
    33    75    76   ar
    34    75    77   ar
    35   105   106    1
    36    68    66   ar
    37    89    90    1
    38   106   107    1
    39   106   109    1
    40    64    66   ar
    41   111   110    1
    42   111   112    1
    43    52    51    2
    44   107   113   am
    45   107   108    2
    46   110   109    1
    47   113   114    1
    48   205   203   ar
    49   205   204   ar
    50    94    93    2
    51    47    46    2
    52   203   201   ar
    53   114   117    1
    54   114   115    1
    55   117   118    1
    56    51    50    1
    57    93    92    1
    58   204   202   ar
    59    34    36   ar
    60    34    32   ar
    61    36    35   ar
    62   121   119   ar
    63    49    50    1
    64    32    31   ar
    65   118   119    1
    66    46    45    1
    67   119   120   ar
    68    44    45    1
    69    50    53    1
    70   201   200   ar
    71    35    33   ar
    72    31    33   ar
    73    31    30    1
    74    53    54    1
    75   115   122   am
    76   115   116    2
    77   202   200   ar
    78    30    27    1
    79   122   123    1
    80    92    91    1
    81    92    95    1
    82    45    48    1
    83    54    55    1
    84   200   199    1
    85    96    95    1
    86    55    56    1
    87    29    28    2
    88    95    97    1
    89   126   123    1
    90   126   127    1
    91   123   124    1
    92    27    28    1
    93    27    26    1
    94   199   196    1
    95    56    57    1
    96   207   206    1
    97   207   208    1
    98   129   127    1
    99   125   124    2
   100   206   197   am
   101   124   130   am
   102   198   197    2
   103   127   128    1
   104   178   177    2
   105   197   196    1
   106   209   208    2
   107   196   195    1
   108   195   189   am
   109    42    41    1
   110   194   192   ar
   111   136   135    1
   112   136   137    1
   113    38    39    1
   114    38    41    1
   115    38    37    1
   116   186   185    2
   117   130   131    1
   118   179   181    1
   119   179   180    1
   120   179   176    1
   121    39    40    2
   122    43    41    1
   123   177   176    1
   124   177   183   am
   125   185   184    1
   126   185   187   am
   127   188   189    1
   128   188   187    1
   129   188   191    1
   130   135   134    1
   131   189   190    2
   132   184   183    1
   133   180   182    1
   134   192   191    1
   135   192   193   ar
   136   175   176    1
   137   131   134    1
   138   131   132    1
   139     7     6    1
   140    24    25    2
   141    24    23    1
   142   132   133    2
   143     6     5    1
   144     6     8    1
   145    21    19   am
   146    23    22    1
   147    22    15   am
   148     5     2    1
   149    12    11    2
   150    20    19    2
   151    19    18    1
   152     1     2    1
   153   170   169    2
   154    15    14    1
   155    15    16    2
   156    14    17    1
   157    14    13    1
   158     2     3    1
   159    18    17    1
   160    11    13   am
   161    11    10    1
   162     9     3   am
   163     9    10    1
   164   169   168    1
   165   171   172    1
   166   171   168    1
   167   173   172    2
   168     3     4    2
   169   172   174   am
   170   168   167    1
   171   138   139    1
   172   141   140    2
   173   139   140    1
   174   140   142   am
   175   167   158   am
   176   159   158    2
   177   142   143    1
   178   158   157    1
   179   143   146    1
   180   143   144    1
   181   146   147    1
   182   163   162    1
   183   163   164    2
   184   144   145    2
   185   161   162    1
   186   161   160    1
   187   157   160    1
   188   157   156    1
   189   166   164    1
   190   147   148   ar
   191   147   149   ar
   192   164   165    1
   193   155   154    1
   194   154   151    1
   195   150   151    1
   196   151   152    1
   197   152   153    2
