@<TRIPOS>MOLECULE
tmp/3d97A00.pdb
 179 167 0 0 0
SMALL
GASTEIGER

@<TRIPOS>ATOM
      1  N         -9.8670    8.1370    1.9920 N.3    15  PHE15      -0.1298
      2  CA        -8.9430    8.2150    0.8140 C.3    15  PHE15       0.1290
      3  C         -9.0140    9.5840    0.0780 C.3    15  PHE15       0.2013
      4  O         -7.9430   10.2750   -0.1300 O.3    15  PHE15      -0.2188
      5  CB        -9.1970    7.0510   -0.1570 C.3    15  PHE15       0.0480
      6  CG        -8.2220    6.9820   -1.2970 C.ar   15  PHE15      -0.0206
      7  CD1       -6.8420    7.1860   -1.0820 C.ar   15  PHE15      -0.0042
      8  CD2       -8.6940    6.6380   -2.5670 C.ar   15  PHE15      -0.0042
      9  CE1       -5.9180    7.0830   -2.1940 C.ar   15  PHE15      -0.0003
     10  CE2       -7.7870    6.5420   -3.6800 C.ar   15  PHE15      -0.0003
     11  CZ        -6.4520    6.8000   -3.4620 C.ar   15  PHE15      -0.0000
     12  N         -8.9770   -0.6460   -6.8960 N.3    39  PRO39      -0.2116
     13  CA        -7.8390   -1.5500   -7.1210 C.3    39  PRO39       0.1372
     14  C         -8.1040   -2.9970   -6.8190 C.2    39  PRO39       0.2244
     15  O         -8.6770   -3.3000   -5.7520 O.2    39  PRO39      -0.2868
     16  CB        -6.8280   -1.0540   -6.1030 C.3    39  PRO39       0.0268
     17  CG        -7.6410   -0.5050   -4.8920 C.3    39  PRO39       0.0207
     18  CD        -8.9100    0.0630   -5.5900 C.3    39  PRO39       0.0892
     19  N         -5.7850   -6.2980   -5.9950 N.3    41  VAL41      -0.1245
     20  CA        -4.4060   -6.4290   -5.6560 C.3    41  VAL41       0.1561
     21  C         -4.0860   -7.9380   -5.6470 C.2    41  VAL41       0.2260
     22  O         -4.6370   -8.6900   -4.8000 O.2    41  VAL41      -0.2867
     23  CB        -4.1750   -5.8580   -4.2100 C.3    41  VAL41       0.0252
     24  CG1       -2.7730   -5.9630   -3.6720 C.3    41  VAL41       0.0019
     25  CG2       -4.5760   -4.3110   -4.1780 C.3    41  VAL41       0.0019
     26  N          3.6830   -7.8710   -5.7830 N.3    52  ILE52      -0.1245
     27  CA         2.3270   -7.3630   -5.6930 C.3    52  ILE52       0.1561
     28  C          1.9980   -6.6280   -6.9520 C.2    52  ILE52       0.2260
     29  O          2.7570   -5.6990   -7.3870 O.2    52  ILE52      -0.2867
     30  CB         2.2590   -6.3350   -4.5020 C.3    52  ILE52       0.0252
     31  CG1        2.7540   -7.0080   -3.2030 C.3    52  ILE52       0.0019
     32  CG2        0.8210   -5.7750   -4.3550 C.3    52  ILE52       0.0019
     33  CD1        2.5860   -6.1760   -1.9160 C.3    52  ILE52       0.0001
     34  N         -1.0190   -4.3730   -8.7510 N.3    54  THR54      -0.1218
     35  CA        -2.2530   -3.6950   -8.5080 C.3    54  THR54       0.1862
     36  C         -2.8580   -3.3370   -9.8170 C.2    54  THR54       0.2287
     37  O         -2.1440   -2.7400  -10.6610 O.2    54  THR54      -0.2866
     38  CB        -2.0060   -2.3970   -7.6900 C.3    54  THR54       0.1770
     39  OG1       -1.4870   -2.6580   -6.3720 O.3    54  THR54      -0.2211
     40  CG2       -3.3180   -1.7060   -7.5130 C.3    54  THR54       0.0375
     41  N          0.2490   -1.9020  -12.1640 N.3    61  THR61      -0.1218
     42  CA         1.6170   -1.7060  -11.7320 C.3    61  THR61       0.1862
     43  C          2.0500   -2.8740  -10.8940 C.2    61  THR61       0.2287
     44  O          1.2150   -3.4590  -10.1840 O.2    61  THR61      -0.2866
     45  CB         1.7510   -0.4710  -10.9000 C.3    61  THR61       0.1770
     46  OG1        0.7620   -0.4460   -9.8940 O.3    61  THR61      -0.2211
     47  CG2        1.5480    0.8090  -11.7990 C.3    61  THR61       0.0375
     48  N          5.0990   -4.2600   -8.1380 N.3    63  ILE63      -0.1245
     49  CA         6.2350   -3.9820   -7.2620 C.3    63  ILE63       0.1561
     50  C          6.7940   -5.3420   -6.7750 C.2    63  ILE63       0.2260
     51  O          6.0060   -6.2420   -6.4990 O.2    63  ILE63      -0.2867
     52  CB         5.8040   -3.1140   -6.0820 C.3    63  ILE63       0.0252
     53  CG1        5.3250   -1.7390   -6.5250 C.3    63  ILE63       0.0019
     54  CG2        6.9760   -2.8300   -5.1810 C.3    63  ILE63       0.0019
     55  CD1        6.4710   -0.8340   -7.0020 C.3    63  ILE63       0.0001
     56  N          9.5140   -6.7530   -3.8000 N.3    65  PHE65      -0.1241
     57  CA        10.3600   -6.3610   -2.6840 C.3    65  PHE65       0.1605
     58  C         10.6400   -7.5690   -1.7750 C.2    65  PHE65       0.2264
     59  O          9.9000   -8.5770   -1.8470 O.2    65  PHE65      -0.2867
     60  CB         9.8090   -5.1720   -1.9180 C.3    65  PHE65       0.0534
     61  CG         8.5540   -5.4220   -1.1760 C.ar   65  PHE65      -0.0203
     62  CD1        8.6240   -6.0170    0.0540 C.ar   65  PHE65      -0.0042
     63  CD2        7.3080   -5.1070   -1.7630 C.ar   65  PHE65      -0.0042
     64  CE1        7.5080   -6.2180    0.8330 C.ar   65  PHE65      -0.0003
     65  CE2        6.1290   -5.3590   -1.0460 C.ar   65  PHE65      -0.0003
     66  CZ         6.2310   -5.9190    0.2760 C.ar   65  PHE65      -0.0000
     67  N         13.8430   -0.7250   -1.7490 N.3    71  PHE71      -0.1241
     68  CA        13.3810   -0.7500   -3.1250 C.3    71  PHE71       0.1605
     69  C         12.7950    0.6180   -3.4350 C.2    71  PHE71       0.2264
     70  O         12.6050    1.4250   -2.5440 O.2    71  PHE71      -0.2867
     71  CB        12.3560   -1.8540   -3.4080 C.3    71  PHE71       0.0534
     72  CG        11.0820   -1.7210   -2.6240 C.ar   71  PHE71      -0.0203
     73  CD1       11.0430   -2.1160   -1.2180 C.ar   71  PHE71      -0.0042
     74  CD2        9.9120   -1.2330   -3.2140 C.ar   71  PHE71      -0.0042
     75  CE1        9.8930   -1.9360   -0.4480 C.ar   71  PHE71      -0.0003
     76  CE2        8.7030   -1.1480   -2.4470 C.ar   71  PHE71      -0.0003
     77  CZ         8.7100   -1.4340   -1.0490 C.ar   71  PHE71      -0.0000
     78  N          9.5360    2.9070   -5.0540 N.3    73  GLU73      -0.1231
     79  CA         8.1430    2.9220   -5.5000 C.3    73  GLU73       0.1699
     80  C          7.7290    4.4080   -5.5850 C.2    73  GLU73       0.2592
     81  O          8.6000    5.2890   -5.6980 O.2    73  GLU73      -0.2718
     82  CB         7.2510    2.0950   -4.4880 C.3    73  GLU73       0.0402
     83  CG         7.4350    2.3800   -3.0180 C.3    73  GLU73       0.1161
     84  CD         6.3740    1.7170   -2.1530 C.2    73  GLU73       0.3649
     85  OE1        5.4620    1.0400   -2.7890 O.co2  73  GLU73      -0.2457
     86  OE2        6.4450    1.8960   -0.9060 O.co2  73  GLU73      -0.2457
     87  N          6.4200    4.6500   -5.5120 N.am   74  GLN74      -0.1979
     88  CA         5.8390    6.0170   -5.5050 C.3    74  GLN74       0.1601
     89  C          5.0140    6.2330   -4.2200 C.2    74  GLN74       0.2287
     90  O          4.4170    5.2620   -3.6560 O.2    74  GLN74      -0.2864
     91  CB         4.9850    6.2560   -6.7610 C.3    74  GLN74       0.0394
     92  CG         5.7940    6.4560   -7.9660 C.3    74  GLN74       0.0908
     93  CD         4.9270    6.6410   -9.1880 C.2    74  GLN74       0.2608
     94  OE1        3.7050    6.8220   -9.0970 O.2    74  GLN74      -0.2717
     95  NE2        5.5550    6.5720  -10.3510 N.am   74  GLN74      -0.0878
     96  N          1.7250    7.9040   -2.1250 N.3    76  VAL76      -0.1301
     97  CA         0.2500    7.8650   -2.4670 C.3    76  VAL76       0.1246
     98  C         -0.1870    8.8810   -3.5440 C.3    76  VAL76       0.2009
     99  O         -1.1190    8.6220   -4.4000 O.3    76  VAL76      -0.2188
    100  CB        -0.6240    7.9850   -1.1880 C.3    76  VAL76       0.0202
    101  CG1       -0.3500    9.2790   -0.4200 C.3    76  VAL76       0.0016
    102  CG2       -2.0890    7.8060   -1.4510 C.3    76  VAL76       0.0016
    103  N          8.9570    5.3370    3.9730 N.3    97  GLN97      -0.1245
    104  CA         9.3380    5.8790    2.6810 C.3    97  GLN97       0.1566
    105  C         10.1800    7.1350    2.8030 C.2    97  GLN97       0.2260
    106  O          9.9960    7.9060    3.7720 O.2    97  GLN97      -0.2867
    107  CB         8.0800    6.2590    1.8510 C.3    97  GLN97       0.0367
    108  CG         7.1370    5.0680    1.5970 C.3    97  GLN97       0.0905
    109  CD         5.8790    5.4120    0.7610 C.2    97  GLN97       0.2608
    110  OE1        5.2540    6.5130    0.8770 O.2    97  GLN97      -0.2717
    111  NE2        5.4480    4.4250   -0.0250 N.am   97  GLN97      -0.0878
    112  N          3.2160    3.1890    5.0010 N.3   109  TRP109     -0.1241
    113  CA         2.0250    2.2930    4.7260 C.3   109  TRP109      0.1605
    114  C          2.1520    1.0090    5.5290 C.2   109  TRP109      0.2264
    115  O          3.2860    0.6940    5.9930 O.2   109  TRP109     -0.2867
    116  CB         1.6860    1.9930    3.2350 C.3   109  TRP109      0.0550
    117  CG         2.8300    1.3370    2.5050 C.ar  109  TRP109      0.0003
    118  CD1        3.6720    1.9330    1.5730 C.ar  109  TRP109      0.0946
    119  CD2        3.1490   -0.0780    2.4640 C.ar  109  TRP109      0.0152
    120  NE1        4.5120    0.9880    1.0150 N.ar  109  TRP109     -0.2442
    121  CE2        4.2580   -0.2380    1.5640 C.ar  109  TRP109      0.0810
    122  CE3        2.6850   -1.2170    3.1830 C.ar  109  TRP109      0.0012
    123  CZ2        4.8150   -1.4950    1.2780 C.ar  109  TRP109      0.0191
    124  CZ3        3.2990   -2.5040    2.9160 C.ar  109  TRP109      0.0001
    125  CH2        4.3370   -2.5970    1.9830 C.ar  109  TRP109      0.0015
    126  N          0.4820   -3.1950    5.8920 N.3   111  LEU111     -0.1245
    127  CA        -0.4610   -4.2600    5.4530 C.3   111  LEU111      0.1561
    128  C         -0.5170   -5.3250    6.5130 C.2   111  LEU111      0.2260
    129  O          0.5470   -5.6990    7.0790 O.2   111  LEU111     -0.2867
    130  CB         0.0260   -4.9630    4.1910 C.3   111  LEU111      0.0270
    131  CG        -0.0240   -4.1380    2.9110 C.3   111  LEU111      0.0019
    132  CD1        0.6740   -5.0060    1.7420 C.3   111  LEU111      0.0001
    133  CD2       -1.5350   -3.9290    2.4220 C.3   111  LEU111      0.0001
    134  N         -7.5010   -8.3930    4.4460 N.3   119  LEU119     -0.1301
    135  CA        -6.1760   -7.7290    4.3330 C.3   119  LEU119      0.1247
    136  C         -6.4680   -6.2560    4.6040 C.3   119  LEU119      0.2009
    137  O         -7.3950   -5.6730    3.9130 O.3   119  LEU119     -0.2188
    138  CB        -5.7180   -7.8740    2.8850 C.3   119  LEU119      0.0217
    139  CG        -4.3560   -7.1300    2.4940 C.3   119  LEU119      0.0015
    140  CD1       -3.1850   -7.6330    3.4620 C.3   119  LEU119      0.0000
    141  CD2       -4.2090   -7.1140    0.8700 C.3   119  LEU119      0.0000
    142  N         -5.0500   -2.3990    4.6770 N.3   121  GLU121     -0.1245
    143  CA        -3.9680   -1.5100    4.2960 C.3   121  GLU121      0.1567
    144  C         -4.2230   -0.1790    4.9430 C.2   121  GLU121      0.2260
    145  O         -5.3530    0.3410    5.0270 O.2   121  GLU121     -0.2867
    146  CB        -4.0280   -1.3490    2.7790 C.3   121  GLU121      0.0388
    147  CG        -2.8380   -0.6040    2.1230 C.3   121  GLU121      0.1160
    148  CD        -3.1730   -0.1770    0.6890 C.2   121  GLU121      0.3649
    149  OE1       -3.9400   -0.8770   -0.0200 O.co2 121  GLU121     -0.2457
    150  OE2       -2.6640    0.8800    0.2570 O.co2 121  GLU121     -0.2457
    151  N         -2.4670    3.8450    4.9300 N.3   123  MET123     -0.1245
    152  CA        -1.4440    4.7540    4.3470 C.3   123  MET123      0.1570
    153  C         -1.5480    6.0390    5.1150 C.2   123  MET123      0.2261
    154  O         -2.6590    6.5520    5.4180 O.2   123  MET123     -0.2867
    155  CB        -1.8080    5.1140    2.9400 C.3   123  MET123      0.0387
    156  CG        -1.7200    3.9370    1.9410 C.3   123  MET123      0.0595
    157  SD        -2.1930    4.3230    0.2030 S.3   123  MET123     -0.1393
    158  CE        -3.8970    4.2710    0.4570 C.3   123  MET123      0.0692
    159  N         -7.8370    0.9390    3.8920 N.3   132  LYS132     -0.1245
    160  CA        -8.6340    0.1800    2.9520 C.3   132  LYS132      0.1561
    161  C         -8.6530   -1.2570    3.3910 C.2   132  LYS132      0.2260
    162  O         -7.7330   -1.7470    4.0540 O.2   132  LYS132     -0.2867
    163  CB        -8.0610    0.2490    1.5120 C.3   132  LYS132      0.0271
    164  CG        -8.0500    1.7310    1.0400 C.3   132  LYS132      0.0035
    165  CD        -7.4270    1.8070   -0.3900 C.3   132  LYS132      0.0206
    166  CE        -7.2960    3.2960   -0.8220 C.3   132  LYS132      0.1093
    167  NZ        -6.6080    3.5290   -2.1570 N.3   132  LYS132     -0.1314
    168  N         -9.5470   -5.4290    2.2010 N.3   134  TYR134     -0.1241
    169  CA        -9.7940   -6.3390    1.0630 C.3   134  TYR134      0.1605
    170  C        -10.1300   -7.7290    1.5430 C.2   134  TYR134      0.2264
    171  O         -9.7430   -8.0960    2.6690 O.2   134  TYR134     -0.2867
    172  CB        -8.5170   -6.4900    0.1710 C.3   134  TYR134      0.0534
    173  CG        -7.8720   -5.1570   -0.2370 C.ar  134  TYR134     -0.0201
    174  CD1       -7.1360   -4.3750    0.6780 C.ar  134  TYR134     -0.0009
    175  CD2       -7.9920   -4.6980   -1.5650 C.ar  134  TYR134     -0.0009
    176  CE1       -6.4930   -3.1690    0.1770 C.ar  134  TYR134      0.0417
    177  CE2       -7.3840   -3.5240   -1.9910 C.ar  134  TYR134      0.0417
    178  CZ        -6.6500   -2.7900   -1.1220 C.ar  134  TYR134      0.1957
    179  OH        -6.1270   -1.5930   -1.6330 O.3   134  TYR134     -0.2866
@<TRIPOS>BOND
     1    41    42    1
     2    47    45    1
     3    42    45    1
     4    42    43    1
     5    45    46    1
     6    43    44    2
     7    37    36    2
     8    95    93   am
     9    36    35    1
    10    93    94    2
    11    93    92    1
    12    34    35    1
    13    35    38    1
    14    48    49    1
    15    92    91    1
    16    38    40    1
    17    38    39    1
    18    29    28    2
    19    49    50    1
    20    49    52    1
    21    13    12    1
    22    13    14    1
    23    13    16    1
    24    55    53    1
    25    28    27    1
    26    12    18    1
    27    14    15    2
    28    50    51    2
    29    91    88    1
    30    53    52    1
    31    16    17    1
    32    52    54    1
    33    19    20    1
    34    26    27    1
    35    81    80    2
    36    27    30    1
    37    20    21    1
    38    20    23    1
    39    21    22    2
    40    18    17    1
    41    80    87   am
    42    80    79    1
    43    87    88    1
    44    88    89    1
    45    79    78    1
    46    79    82    1
    47    30    32    1
    48    30    31    1
    49    82    83    1
    50    99    98    1
    51    89    90    2
    52    23    25    1
    53    23    24    1
    54    56    57    1
    55    10    11   ar
    56    10     8   ar
    57    98    97    1
    58    11     9   ar
    59    69    68    1
    60    69    70    2
    61    71    68    1
    62    71    72    1
    63    74    72   ar
    64    74    76   ar
    65    31    33    1
    66    68    67    1
    67    83    84    1
    68    85    84   ar
    69    57    60    1
    70    57    58    1
    71    72    73   ar
    72     8     6   ar
    73    97    96    1
    74    97   100    1
    75    76    77   ar
    76     9     7   ar
    77   167   166    1
    78    84    86   ar
    79   177   175   ar
    80   177   178   ar
    81    60    61    1
    82    59    58    2
    83    63    61   ar
    84    63    65   ar
    85   179   178    1
    86   175   173   ar
    87   102   100    1
    88     6     7   ar
    89     6     5    1
    90    73    75   ar
    91   100   101    1
    92    61    62   ar
    93   178   176   ar
    94    77    75   ar
    95    65    66   ar
    96   166   165    1
    97   165   164    1
    98   173   172    1
    99   173   174   ar
   100     5     2    1
   101     4     3    1
   102   111   109   am
   103   149   148   ar
   104    62    64   ar
   105     3     2    1
   106   172   169    1
   107   176   174   ar
   108   157   158    1
   109   157   156    1
   110   150   148   ar
   111    66    64   ar
   112   148   147    1
   113   109   110    2
   114   109   108    1
   115     2     1    1
   116   141   139    1
   117   120   121   ar
   118   120   118   ar
   119   164   163    1
   120   169   170    1
   121   169   168    1
   122   123   121   ar
   123   123   125   ar
   124   163   160    1
   125   170   171    2
   126   121   119   ar
   127   118   117   ar
   128   108   107    1
   129   132   131    1
   130   107   104    1
   131   156   155    1
   132   125   124   ar
   133   147   146    1
   134   133   131    1
   135   119   117   ar
   136   119   122   ar
   137   139   138    1
   138   139   140    1
   139   117   116    1
   140   104   105    1
   141   104   103    1
   142   146   143    1
   143   105   106    2
   144   138   135    1
   145   131   130    1
   146   124   122   ar
   147   155   152    1
   148   160   161    1
   149   160   159    1
   150   116   113    1
   151   161   162    2
   152   137   136    1
   153   130   127    1
   154   143   142    1
   155   143   144    1
   156   135   134    1
   157   135   136    1
   158   152   151    1
   159   152   153    1
   160   113   112    1
   161   113   114    1
   162   144   145    2
   163   153   154    2
   164   127   126    1
   165   127   128    1
   166   114   115    2
   167   128   129    2
