@<TRIPOS>MOLECULE
tmp/3d9cA00.pdb
 111 103 0 0 0
SMALL
GASTEIGER

@<TRIPOS>ATOM
      1  N          4.8240   67.5570    1.9940 N.3    45  TYR45      -0.1241
      2  CA         3.7670   68.1640    1.1870 C.3    45  TYR45       0.1605
      3  C          3.7680   69.6730    1.4340 C.2    45  TYR45       0.2264
      4  O          4.0360   70.1270    2.5530 O.2    45  TYR45      -0.2867
      5  CB         2.4060   67.5870    1.5950 C.3    45  TYR45       0.0534
      6  CG         2.2750   66.0810    1.4560 C.ar   45  TYR45      -0.0201
      7  CD1        2.3560   65.4620    0.2070 C.ar   45  TYR45      -0.0009
      8  CD2        2.0450   65.2770    2.5770 C.ar   45  TYR45      -0.0009
      9  CE1        2.2070   64.0750    0.0770 C.ar   45  TYR45       0.0417
     10  CE2        1.8950   63.8940    2.4600 C.ar   45  TYR45       0.0417
     11  CZ         1.9760   63.2970    1.2100 C.ar   45  TYR45       0.1957
     12  OH         1.8170   61.9300    1.0940 O.3    45  TYR45      -0.2866
     13  N          1.1680   71.5220    1.3040 N.3    47  ASP47      -0.1225
     14  CA        -0.1110   71.8750    1.9110 C.3    47  ASP47       0.1805
     15  C         -0.2480   71.4260    3.3670 C.2    47  ASP47       0.2597
     16  O         -1.2860   71.6590    3.9940 O.2    47  ASP47      -0.2718
     17  CB        -1.2370   71.2660    1.0770 C.3    47  ASP47       0.1424
     18  CG        -1.1910   69.7530    1.0670 C.2    47  ASP47       0.3668
     19  OD1       -0.1830   69.1930    0.5770 O.co2  47  ASP47      -0.2456
     20  OD2       -2.1600   69.1290    1.5570 O.co2  47  ASP47      -0.2456
     21  N          0.7890   70.7790    3.8960 N.am   48  VAL48      -0.1980
     22  CA         0.7720   70.3110    5.2800 C.3    48  VAL48       0.1595
     23  C          1.8900   70.9740    6.0770 C.2    48  VAL48       0.2287
     24  O          3.0190   70.4890    6.1080 O.2    48  VAL48      -0.2864
     25  CB         0.9560   68.7940    5.3610 C.3    48  VAL48       0.0276
     26  CG1        0.6400   68.3160    6.7710 C.3    48  VAL48       0.0022
     27  CG2        0.0650   68.1080    4.3460 C.3    48  VAL48       0.0022
     28  N          1.8340   53.8180    9.1300 N.3   110  ASN110     -0.1240
     29  CA         1.9540   53.5040    7.7130 C.3   110  ASN110      0.1653
     30  C          3.1570   52.5940    7.4640 C.2   110  ASN110      0.2266
     31  O          3.9130   52.2870    8.3860 O.2   110  ASN110     -0.2867
     32  CB         2.1350   54.8060    6.9260 C.3   110  ASN110      0.1155
     33  CG         3.4930   55.4220    7.1540 C.2   110  ASN110      0.2627
     34  OD1        3.7760   55.9420    8.2320 O.2   110  ASN110     -0.2716
     35  ND2        4.3540   55.3450    6.1500 N.am  110  ASN110     -0.0877
     36  N          1.1640   51.7550   -2.0480 N.3   115  LYS115     -0.1245
     37  CA         0.7500   52.0770   -3.4070 C.3   115  LYS115      0.1561
     38  C          1.9710   52.0970   -4.3180 C.2   115  LYS115      0.2260
     39  O          2.0500   52.8950   -5.2450 O.2   115  LYS115     -0.2867
     40  CB         0.0600   53.4440   -3.4270 C.3   115  LYS115      0.0271
     41  CG        -1.2030   53.5260   -2.5830 C.3   115  LYS115      0.0035
     42  CD        -1.8420   54.8970   -2.7090 C.3   115  LYS115      0.0206
     43  CE        -3.0140   55.0570   -1.7500 C.3   115  LYS115      0.1093
     44  NZ        -3.5820   56.4420   -1.7910 N.3   115  LYS115     -0.1314
     45  N          6.4550   56.4410    1.1670 N.3   119  LYS119     -0.1245
     46  CA         5.6810   57.2610    2.0860 C.3   119  LYS119      0.1561
     47  C          6.5390   58.0110    3.1010 C.2   119  LYS119      0.2260
     48  O          6.1380   59.0620    3.6100 O.2   119  LYS119     -0.2867
     49  CB         4.6540   56.3720    2.7820 C.3   119  LYS119      0.0271
     50  CG         3.6270   55.8050    1.8130 C.3   119  LYS119      0.0035
     51  CD         3.0320   56.9290    0.9730 C.3   119  LYS119      0.0206
     52  CE         2.0980   56.4200   -0.1110 C.3   119  LYS119      0.1093
     53  NZ         1.8180   57.5200   -1.0660 N.3   119  LYS119     -0.1314
     54  N          2.9020   59.6520   10.0280 N.3   214  CYS214     -0.1221
     55  CA         2.4350   58.8440    8.9120 C.3   214  CYS214      0.1808
     56  C          2.8960   59.6780    7.7400 C.2   214  CYS214      0.2602
     57  O          3.4940   60.7270    7.9660 O.2   214  CYS214     -0.2717
     58  CB         0.9150   58.6870    8.9460 C.3   214  CYS214      0.0970
     59  SG        -0.0370   60.1970    9.2720 S.3   214  CYS214     -0.0800
     60  N          2.6350   59.2460    6.5100 N.am  215  SER215     -0.1938
     61  CA         3.0980   60.0130    5.3610 C.3   215  SER215      0.2055
     62  C          3.0450   61.5040    5.6590 C.2   215  SER215      0.2642
     63  O          4.0790   62.1760    5.6880 O.2   215  SER215     -0.2714
     64  CB         2.2610   59.7060    4.1220 C.3   215  SER215      0.2130
     65  OG         2.8150   60.3530    2.9840 O.3   215  SER215     -0.2179
     66  N          1.8420   62.0130    5.9140 N.am  216  ALA216     -0.1977
     67  CA         1.6720   63.4280    6.2100 C.3   216  ALA216      0.1597
     68  C          1.5920   63.7170    7.7140 C.2   216  ALA216      0.2287
     69  O          1.7990   64.8530    8.1400 O.2   216  ALA216     -0.2864
     70  CB         0.4220   63.9720    5.4930 C.3   216  ALA216      0.0319
     71  N         -1.1680   63.4700    9.8200 N.3   218  ILE218     -0.1231
     72  CA        -2.3870   64.2300   10.1180 C.3   218  ILE218      0.1692
     73  C         -3.6400   63.3630    9.9220 C.2   218  ILE218      0.2593
     74  O         -4.5920   63.4540   10.6860 O.2   218  ILE218     -0.2718
     75  CB        -2.5210   65.5050    9.2160 C.3   218  ILE218      0.0266
     76  CG1       -2.6070   65.1020    7.7430 C.3   218  ILE218      0.0019
     77  CG2       -1.3310   66.4510    9.4260 C.3   218  ILE218      0.0020
     78  CD1       -2.8650   66.2750    6.8000 C.3   218  ILE218      0.0001
     79  N         -3.6290   62.5200    8.8950 N.am  219  GLY219     -0.1942
     80  CA        -4.7690   61.6600    8.6240 C.3   219  GLY219      0.2014
     81  C         -4.9100   60.5390    9.6400 C.2   219  GLY219      0.2638
     82  O         -5.7050   60.6630   10.5870 O.2   219  GLY219     -0.2714
     83  N         -4.1580   59.4480    9.4310 N.am  220  ARG220     -0.1977
     84  CA        -4.1620   58.2820   10.3220 C.3   220  ARG220      0.1597
     85  C         -3.6810   58.6720   11.7130 C.2   220  ARG220      0.2287
     86  O         -4.2450   58.2280   12.7160 O.2   220  ARG220     -0.2864
     87  CB        -3.2660   57.1690    9.7580 C.3   220  ARG220      0.0334
     88  CG        -3.7070   56.6370    8.4090 C.3   220  ARG220      0.0492
     89  CD        -2.8660   55.4420    7.9340 C.3   220  ARG220      0.2205
     90  NE        -3.0590   55.2040    6.5050 N.pl3 220  ARG220     -0.0865
     91  CZ        -2.4020   54.2960    5.7880 C.cat 220  ARG220      0.5346
     92  NH1       -1.4940   53.5160    6.3630 N.pl3 220  ARG220      0.1354
     93  NH2       -2.6430   54.1790    4.4840 N.pl3 220  ARG220      0.1354
     94  N         -8.0090   63.4210    7.4960 N.3   261  GLN261     -0.1245
     95  CA        -8.0700   63.8310    6.0920 C.3   261  GLN261      0.1566
     96  C         -9.2950   63.4760    5.2530 C.2   261  GLN261      0.2260
     97  O         -9.4890   64.0530    4.1850 O.2   261  GLN261     -0.2867
     98  CB        -6.8310   63.2920    5.3830 C.3   261  GLN261      0.0367
     99  CG        -5.5200   63.7930    5.9380 C.3   261  GLN261      0.0905
    100  CD        -4.3420   63.0240    5.3810 C.2   261  GLN261      0.2608
    101  OE1       -4.2230   61.8110    5.5870 O.2   261  GLN261     -0.2717
    102  NE2       -3.4650   63.7190    4.6680 N.am  261  GLN261     -0.0878
    103  N        -12.3950   58.4470    7.3690 N.3   265  GLN265     -0.1245
    104  CA       -11.5450   58.4400    8.5530 C.3   265  GLN265      0.1566
    105  C        -12.3290   58.9970    9.7350 C.2   265  GLN265      0.2260
    106  O        -12.2940   58.4400   10.8340 O.2   265  GLN265     -0.2867
    107  CB       -10.2790   59.2660    8.2970 C.3   265  GLN265      0.0367
    108  CG        -9.0290   58.4130    8.0670 C.3   265  GLN265      0.0905
    109  CD        -7.8220   59.2380    7.6460 C.2   265  GLN265      0.2608
    110  OE1       -7.4590   60.2080    8.3130 O.2   265  GLN265     -0.2717
    111  NE2       -7.1930   58.8520    6.5340 N.am  265  GLN265     -0.0878
@<TRIPOS>BOND
     1    39    38    2
     2    38    37    1
     3    40    37    1
     4    40    41    1
     5    37    36    1
     6    42    41    1
     7    42    43    1
     8    44    43    1
     9    53    52    1
    10    52    51    1
    11     9     7   ar
    12     9    11   ar
    13     7     6   ar
    14    19    18   ar
    15    51    50    1
    16    18    17    1
    17    18    20   ar
    18    17    14    1
    19    12    11    1
    20    45    46    1
    21     2     3    1
    22     2     5    1
    23     2     1    1
    24    11    10   ar
    25    13    14    1
    26     3     4    2
    27     6     5    1
    28     6     8   ar
    29    50    49    1
    30    14    15    1
    31    46    49    1
    32    46    47    1
    33    10     8   ar
    34    65    64    1
    35    47    48    2
    36    15    21   am
    37    15    16    2
    38    21    22    1
    39    64    61    1
    40    97    96    2
    41    27    25    1
    42    93    91    1
    43   102   100   am
    44    96    95    1
    45    22    25    1
    46    22    23    1
    47    25    26    1
    48    61    62    1
    49    61    60    1
    50   100   101    2
    51   100    99    1
    52    98    99    1
    53    98    95    1
    54    70    67    1
    55    62    63    2
    56    62    66   am
    57    91    92    1
    58    91    90    2
    59    66    67    1
    60    23    24    2
    61    95    94    1
    62    35    33   am
    63    67    68    1
    64    90    89    1
    65    60    56   am
    66   111   109   am
    67    78    76    1
    68    32    33    1
    69    32    29    1
    70    33    34    2
    71   103   104    1
    72    30    29    1
    73    30    31    2
    74   109   108    1
    75   109   110    2
    76    29    28    1
    77    68    69    2
    78    56    57    2
    79    56    55    1
    80    76    75    1
    81    89    88    1
    82   108   107    1
    83   107   104    1
    84    88    87    1
    85   104   105    1
    86    80    79    1
    87    80    81    1
    88    79    73   am
    89    55    58    1
    90    55    54    1
    91    58    59    1
    92    75    77    1
    93    75    72    1
    94    83    81   am
    95    83    84    1
    96    81    82    2
    97   105   106    2
    98    87    84    1
    99    71    72    1
   100    73    72    1
   101    73    74    2
   102    84    85    1
   103    85    86    2
