@<TRIPOS>MOLECULE
tmp/3d9dA02.pdb
 103 99 0 0 0
SMALL
GASTEIGER

@<TRIPOS>ATOM
      1  N         34.5950  -18.0500  -55.6020 N.3   302  THR302     -0.1203
      2  CA        35.9950  -18.2420  -55.8930 C.3   302  THR302      0.1994
      3  C         36.8260  -17.0960  -55.3680 C.2   302  THR302      0.2617
      4  O         38.0230  -17.1010  -55.5340 O.2   302  THR302     -0.2717
      5  CB        36.2470  -18.3020  -57.4150 C.3   302  THR302      0.1784
      6  OG1       36.1170  -16.9820  -57.9590 O.3   302  THR302     -0.2211
      7  CG2       35.2580  -19.2270  -58.0820 C.3   302  THR302      0.0376
      8  N         36.1820  -16.0990  -54.7850 N.am  303  ARG303     -0.1979
      9  CA        36.8530  -14.8970  -54.2960 C.3   303  ARG303      0.1597
     10  C         37.8840  -14.3730  -55.2950 C.2   303  ARG303      0.2287
     11  O         39.0240  -14.0990  -54.9290 O.2   303  ARG303     -0.2864
     12  CB        37.4960  -15.1480  -52.9140 C.3   303  ARG303      0.0334
     13  CG        36.4720  -15.4230  -51.8170 C.3   303  ARG303      0.0492
     14  CD        35.9120  -14.1410  -51.2990 C.3   303  ARG303      0.2205
     15  NE        34.8310  -13.6250  -52.1150 N.pl3 303  ARG303     -0.0865
     16  CZ        34.4550  -12.3480  -52.1400 C.cat 303  ARG303      0.5346
     17  NH1       35.1020  -11.4410  -51.4040 N.pl3 303  ARG303      0.1354
     18  NH2       33.4200  -11.9830  -52.8970 N.pl3 303  ARG303      0.1354
     19  N         36.4550  -21.4570  -53.1720 N.3   309  ILE309     -0.1245
     20  CA        37.4570  -21.3720  -52.0960 C.3   309  ILE309      0.1561
     21  C         37.6060  -22.6480  -51.2330 C.2   309  ILE309      0.2260
     22  O         38.6610  -22.8610  -50.5980 O.2   309  ILE309     -0.2867
     23  CB        37.3950  -20.0650  -51.2790 C.3   309  ILE309      0.0252
     24  CG1       36.0160  -19.8680  -50.6210 C.3   309  ILE309      0.0019
     25  CG2       37.8530  -18.8900  -52.1690 C.3   309  ILE309      0.0019
     26  CD1       36.0010  -18.9200  -49.4140 C.3   309  ILE309      0.0001
     27  N         40.9730  -24.6310  -51.3990 N.3   312  HIS312     -0.1241
     28  CA        42.1660  -24.1840  -50.6880 C.3   312  HIS312      0.1621
     29  C         42.2100  -24.9090  -49.3420 C.2   312  HIS312      0.2264
     30  O         41.2550  -24.8700  -48.5720 O.2   312  HIS312     -0.2867
     31  CB        42.1610  -22.6640  -50.4800 C.3   312  HIS312      0.0745
     32  CG        42.0450  -21.8730  -51.7600 C.ar  312  HIS312      0.0817
     33  ND1       42.9490  -21.9950  -52.7980 N.ar  312  HIS312     -0.2268
     34  CD2       41.1180  -20.9740  -52.1760 C.ar  312  HIS312      0.1154
     35  CE1       42.5910  -21.1940  -53.7870 C.ar  312  HIS312      0.1986
     36  NE2       41.4840  -20.5670  -53.4370 N.ar  312  HIS312     -0.2212
     37  N         43.5990  -24.4030  -46.4360 N.3   314  SER314     -0.1202
     38  CA        43.4230  -23.6250  -45.1910 C.3   314  SER314      0.2020
     39  C         41.9610  -23.3290  -44.9040 C.2   314  SER314      0.2618
     40  O         41.5240  -23.3090  -43.7410 O.2   314  SER314     -0.2717
     41  CB        44.1710  -22.2740  -45.2620 C.3   314  SER314      0.2103
     42  OG        45.5720  -22.4580  -45.2860 O.3   314  SER314     -0.2182
     43  N         41.2200  -23.0510  -45.9690 N.am  315  VAL315     -0.1979
     44  CA        39.7800  -22.8290  -45.9020 C.3   315  VAL315      0.1595
     45  C         39.1030  -24.1430  -45.5030 C.2   315  VAL315      0.2287
     46  O         38.2700  -24.1610  -44.6210 O.2   315  VAL315     -0.2864
     47  CB        39.2270  -22.4100  -47.2640 C.3   315  VAL315      0.0276
     48  CG1       37.6740  -22.3340  -47.2390 C.3   315  VAL315      0.0022
     49  CG2       39.8800  -21.0680  -47.7300 C.3   315  VAL315      0.0022
     50  N         36.5360  -16.5430  -40.3990 N.3   374  LYS374     -0.1231
     51  CA        37.8760  -16.4750  -40.9770 C.3   374  LYS374      0.1693
     52  C         37.8970  -17.1090  -42.3780 C.2   374  LYS374      0.2592
     53  O         38.5460  -16.5940  -43.2630 O.2   374  LYS374     -0.2718
     54  CB        38.8890  -17.1390  -40.0460 C.3   374  LYS374      0.0285
     55  CG        39.0550  -16.3890  -38.7370 C.3   374  LYS374      0.0035
     56  CD        40.0210  -17.1110  -37.8150 C.3   374  LYS374      0.0206
     57  CE        40.4600  -16.2030  -36.6590 C.3   374  LYS374      0.1093
     58  NZ        41.2700  -17.0180  -35.6750 N.3   374  LYS374     -0.1314
     59  N         37.1920  -18.2270  -42.5450 N.am  375  ALA375     -0.1966
     60  CA        37.1030  -18.9320  -43.8260 C.3   375  ALA375      0.1728
     61  C         36.3960  -18.0840  -44.8910 C.2   375  ALA375      0.2616
     62  O         36.8660  -18.0090  -46.0330 O.2   375  ALA375     -0.2715
     63  CB        36.3720  -20.2990  -43.6590 C.3   375  ALA375      0.0334
     64  N         35.2520  -17.4970  -44.5280 N.am  376  VAL376     -0.1963
     65  CA        34.5200  -16.5980  -45.4290 C.3   376  VAL376      0.1727
     66  C         35.2890  -15.2840  -45.6790 C.2   376  VAL376      0.2617
     67  O         35.2700  -14.7520  -46.7870 O.2   376  VAL376     -0.2715
     68  CB        33.1090  -16.2760  -44.9150 C.3   376  VAL376      0.0290
     69  CG1       32.4970  -15.0690  -45.6830 C.3   376  VAL376      0.0023
     70  CG2       32.2120  -17.5200  -45.0260 C.3   376  VAL376      0.0023
     71  N         35.9400  -14.7560  -44.6420 N.am  377  GLY377     -0.1940
     72  CA        36.8100  -13.6060  -44.8020 C.3   377  GLY377      0.2014
     73  C         36.0920  -12.3010  -44.5500 C.2   377  GLY377      0.2639
     74  O         35.1350  -12.2430  -43.7530 O.2   377  GLY377     -0.2714
     75  N         36.5240  -11.2440  -45.2370 N.am  378  MET378     -0.1963
     76  CA        36.0080   -9.9160  -44.9480 C.3   378  MET378      0.1736
     77  C         34.4840   -9.7950  -45.0190 C.2   378  MET378      0.2616
     78  O         33.8650   -9.1160  -44.1740 O.2   378  MET378     -0.2715
     79  CB        36.6480   -8.8580  -45.8510 C.3   378  MET378      0.0427
     80  CG        36.4130   -7.4620  -45.2900 C.3   378  MET378      0.0599
     81  SD        37.4930   -7.1490  -43.8800 S.3   378  MET378     -0.1393
     82  CE        36.3950   -7.0790  -42.4570 C.3   378  MET378      0.0692
     83  N         33.8870  -10.4740  -46.0000 N.am  379  LYS379     -0.1977
     84  CA        32.4350  -10.4740  -46.1770 C.3   379  LYS379      0.1596
     85  C         31.6260  -10.9020  -44.9430 C.2   379  LYS379      0.2287
     86  O         30.4620  -10.4720  -44.7710 O.2   379  LYS379     -0.2864
     87  CB        32.0620  -11.3060  -47.3940 C.3   379  LYS379      0.0298
     88  CG        32.3490  -10.5690  -48.7140 C.3   379  LYS379      0.0038
     89  CD        31.8750  -11.3390  -49.9500 C.3   379  LYS379      0.0206
     90  CE        30.3680  -11.6010  -49.9520 C.3   379  LYS379      0.1093
     91  NZ        29.4790  -10.3930  -49.6240 N.3   379  LYS379     -0.1314
     92  N         31.9430   -9.9320  -42.0310 N.3   381  TYR381     -0.1241
     93  CA        31.9460   -8.8710  -41.0420 C.3   381  TYR381      0.1605
     94  C         30.8110   -7.8760  -41.2310 C.2   381  TYR381      0.2264
     95  O         30.6090   -7.0140  -40.3690 O.2   381  TYR381     -0.2867
     96  CB        33.2820   -8.1300  -41.0590 C.3   381  TYR381      0.0534
     97  CG        33.5590   -7.3010  -39.8070 C.ar  381  TYR381     -0.0201
     98  CD1       33.7480   -7.9360  -38.5530 C.ar  381  TYR381     -0.0009
     99  CD2       33.6450   -5.9050  -39.8630 C.ar  381  TYR381     -0.0009
    100  CE1       34.0130   -7.2020  -37.3900 C.ar  381  TYR381      0.0417
    101  CE2       33.9150   -5.1490  -38.6790 C.ar  381  TYR381      0.0417
    102  CZ        34.1090   -5.8200  -37.4610 C.ar  381  TYR381      0.1957
    103  OH        34.3710   -5.1360  -36.2970 O.3   381  TYR381     -0.2866
@<TRIPOS>BOND
     1     7     5    1
     2     6     5    1
     3     5     2    1
     4     2     1    1
     5     2     3    1
     6     4     3    2
     7     3     8   am
     8    10    11    2
     9    10     9    1
    10     8     9    1
    11     9    12    1
    12    35    36   ar
    13    35    33   ar
    14    36    34   ar
    15    19    20    1
    16    12    13    1
    17    18    16    1
    18    33    32   ar
    19    34    32   ar
    20    25    23    1
    21    16    15    2
    22    16    17    1
    23    15    14    1
    24    20    23    1
    25    20    21    1
    26    13    14    1
    27    32    31    1
    28    27    28    1
    29    23    24    1
    30    21    22    2
    31    28    31    1
    32    28    29    1
    33    24    26    1
    34    90    89    1
    35    90    91    1
    36    89    88    1
    37    29    30    2
    38    88    87    1
    39    49    47    1
    40    87    84    1
    41    47    48    1
    42    47    44    1
    43    67    66    2
    44    37    38    1
    45    84    83    1
    46    84    85    1
    47    62    61    2
    48    83    77   am
    49    43    44    1
    50    43    39   am
    51    44    45    1
    52    79    80    1
    53    79    76    1
    54    69    68    1
    55    66    65    1
    56    66    71   am
    57    45    46    2
    58    65    68    1
    59    65    64    1
    60    80    81    1
    61    42    41    1
    62    41    38    1
    63    75    76    1
    64    75    73   am
    65    38    39    1
    66    70    68    1
    67    77    76    1
    68    77    78    2
    69    85    86    2
    70    39    40    2
    71    61    64   am
    72    61    60    1
    73    72    71    1
    74    72    73    1
    75    73    74    2
    76    81    82    1
    77    60    63    1
    78    60    59    1
    79    53    52    2
    80    59    52   am
    81    52    51    1
    82    92    93    1
    83    94    93    1
    84    94    95    2
    85    96    93    1
    86    96    97    1
    87    51    50    1
    88    51    54    1
    89    54    55    1
    90    99    97   ar
    91    99   101   ar
    92    97    98   ar
    93    55    56    1
    94   101   102   ar
    95    98   100   ar
    96    56    57    1
    97   102   100   ar
    98   102   103    1
    99    57    58    1
