@<TRIPOS>MOLECULE
tmp/3d9dA01.pdb
 114 105 0 0 0
SMALL
GASTEIGER

@<TRIPOS>ATOM
      1  N         15.4330  -27.8440  -30.3000 N.3    79  LEU79      -0.1245
      2  CA        16.2220  -26.6620  -29.9410 C.3    79  LEU79       0.1561
      3  C         17.3100  -26.3460  -30.9760 C.2    79  LEU79       0.2260
      4  O         17.5550  -25.1770  -31.2660 O.2    79  LEU79      -0.2867
      5  CB        16.8420  -26.7790  -28.5420 C.3    79  LEU79       0.0270
      6  CG        15.9020  -26.9070  -27.3490 C.3    79  LEU79       0.0019
      7  CD1       16.6630  -26.8200  -25.9930 C.3    79  LEU79       0.0001
      8  CD2       14.7170  -25.8860  -27.4770 C.3    79  LEU79       0.0001
      9  N         14.5250  -18.5410  -27.5260 N.3    91  ILE91      -0.1245
     10  CA        15.0790  -18.2400  -26.2020 C.3    91  ILE91       0.1561
     11  C         14.0090  -18.1330  -25.1050 C.2    91  ILE91       0.2260
     12  O         14.2280  -18.5020  -23.9560 O.2    91  ILE91      -0.2867
     13  CB        15.9430  -16.9370  -26.2410 C.3    91  ILE91       0.0252
     14  CG1       16.6660  -16.6910  -24.9150 C.3    91  ILE91       0.0019
     15  CG2       15.1010  -15.7250  -26.5310 C.3    91  ILE91       0.0019
     16  CD1       17.8040  -17.6550  -24.6310 C.3    91  ILE91       0.0001
     17  N         12.7030  -21.7230  -24.2180 N.3    94  VAL94      -0.1231
     18  CA        13.6140  -22.4580  -23.3510 C.3    94  VAL94       0.1692
     19  C         13.6960  -21.8220  -21.9670 C.2    94  VAL94       0.2591
     20  O         13.7990  -22.5300  -20.9630 O.2    94  VAL94      -0.2718
     21  CB        15.0200  -22.7220  -23.9890 C.3    94  VAL94       0.0266
     22  CG1       14.8720  -23.3810  -25.3460 C.3    94  VAL94       0.0020
     23  CG2       15.8780  -21.4500  -24.0960 C.3    94  VAL94       0.0020
     24  N         13.6460  -20.4930  -21.8890 N.am   95  ALA95      -0.1980
     25  CA        13.6540  -19.8540  -20.5770 C.3    95  ALA95       0.1597
     26  C         12.4180  -20.2700  -19.7240 C.2    95  ALA95       0.2287
     27  O         12.5170  -20.4780  -18.5170 O.2    95  ALA95      -0.2864
     28  CB        13.7400  -18.3580  -20.7140 C.3    95  ALA95       0.0319
     29  N         10.7470  -23.1900  -20.2450 N.3    97  ALA97      -0.1231
     30  CA        11.1250  -24.5370  -19.8600 C.3    97  ALA97       0.1694
     31  C         11.9220  -24.5680  -18.5730 C.2    97  ALA97       0.2591
     32  O         11.6390  -25.3890  -17.7130 O.2    97  ALA97      -0.2718
     33  CB        11.8730  -25.2240  -20.9560 C.3    97  ALA97       0.0304
     34  N         12.8810  -23.6530  -18.4140 N.am   98  LEU98      -0.1980
     35  CA        13.7140  -23.6450  -17.2070 C.3    98  LEU98       0.1596
     36  C         12.8870  -23.2390  -16.0040 C.2    98  LEU98       0.2287
     37  O         13.0780  -23.7740  -14.9120 O.2    98  LEU98      -0.2864
     38  CB        14.9050  -22.6790  -17.3100 C.3    98  LEU98       0.0297
     39  CG        16.2610  -22.9770  -16.6330 C.3    98  LEU98       0.0022
     40  CD1       17.0050  -21.6940  -16.2400 C.3    98  LEU98       0.0001
     41  CD2       16.2870  -24.0150  -15.4930 C.3    98  LEU98       0.0001
     42  N         10.8670  -26.0560  -14.7320 N.3   101  MET101     -0.1245
     43  CA        11.5900  -27.2450  -14.2530 C.3   101  MET101      0.1570
     44  C         11.5250  -27.5850  -12.7700 C.2   101  MET101      0.2261
     45  O         11.3880  -28.7500  -12.4400 O.2   101  MET101     -0.2867
     46  CB        13.0380  -27.3110  -14.7820 C.3   101  MET101      0.0387
     47  CG        13.1460  -28.2160  -16.0130 C.3   101  MET101      0.0595
     48  SD        14.8590  -28.4410  -16.5260 S.3   101  MET101     -0.1393
     49  CE        15.1590  -27.0700  -17.6230 C.3   101  MET101      0.0692
     50  N         15.7120  -14.7230  -17.5670 N.3   170  SER170     -0.1217
     51  CA        14.9210  -14.4540  -18.7410 C.3   170  SER170      0.1889
     52  C         13.4290  -14.6160  -18.4180 C.2   170  SER170      0.2288
     53  O         13.0650  -15.5180  -17.6400 O.2   170  SER170     -0.2866
     54  CB        15.4020  -15.3250  -19.9270 C.3   170  SER170      0.2089
     55  OG        16.4670  -14.6630  -20.6770 O.3   170  SER170     -0.2183
     56  N         19.1100  -26.8300  -13.2150 N.3   272  PHE272     -0.1241
     57  CA        20.2810  -26.3230  -13.9330 C.3   272  PHE272      0.1605
     58  C         21.1790  -27.3900  -14.5850 C.2   272  PHE272      0.2264
     59  O         21.9130  -27.0740  -15.5300 O.2   272  PHE272     -0.2867
     60  CB        21.1160  -25.3730  -13.0660 C.3   272  PHE272      0.0534
     61  CG        20.5200  -23.9880  -12.9360 C.ar  272  PHE272     -0.0203
     62  CD1       19.6830  -23.6690  -11.8600 C.ar  272  PHE272     -0.0042
     63  CD2       20.7670  -23.0120  -13.8950 C.ar  272  PHE272     -0.0042
     64  CE1       19.1340  -22.4110  -11.7370 C.ar  272  PHE272     -0.0003
     65  CE2       20.2200  -21.7300  -13.7640 C.ar  272  PHE272     -0.0003
     66  CZ        19.3980  -21.4330  -12.6920 C.ar  272  PHE272     -0.0000
     67  N         19.2790  -28.1030  -17.8960 N.3   275  SER275     -0.1217
     68  CA        19.5280  -27.0430  -18.8450 C.3   275  SER275      0.1889
     69  C         21.0060  -27.0540  -19.3310 C.2   275  SER275      0.2288
     70  O         21.2880  -26.7170  -20.4940 O.2   275  SER275     -0.2866
     71  CB        19.1760  -25.6910  -18.2370 C.3   275  SER275      0.2089
     72  OG        19.9600  -25.4360  -17.0790 O.3   275  SER275     -0.2183
     73  N         21.0090  -29.3210  -22.1730 N.3   278  LEU278     -0.1231
     74  CA        20.1800  -28.8670  -23.3200 C.3   278  LEU278      0.1693
     75  C         20.6310  -27.5620  -24.0000 C.2   278  LEU278      0.2591
     76  O         20.3910  -27.3310  -25.1880 O.2   278  LEU278     -0.2718
     77  CB        18.7040  -28.7820  -22.9280 C.3   278  LEU278      0.0284
     78  CG        18.0950  -30.1740  -22.7580 C.3   278  LEU278      0.0019
     79  CD1       16.8870  -30.0910  -21.8850 C.3   278  LEU278      0.0001
     80  CD2       17.7570  -30.7690  -24.1090 C.3   278  LEU278      0.0001
     81  N         21.2920  -26.7200  -23.2330 N.am  279  VAL279     -0.1980
     82  CA        21.9400  -25.5180  -23.7330 C.3   279  VAL279      0.1595
     83  C         23.0400  -25.8440  -24.8020 C.2   279  VAL279      0.2287
     84  O         23.3540  -25.0120  -25.6560 O.2   279  VAL279     -0.2864
     85  CB        22.4510  -24.7910  -22.4930 C.3   279  VAL279      0.0276
     86  CG1       23.8980  -24.3850  -22.5480 C.3   279  VAL279      0.0022
     87  CG2       21.4420  -23.7320  -22.0030 C.3   279  VAL279      0.0022
     88  N         21.4730  -25.5480  -28.1590 N.3   282  MET282     -0.1245
     89  CA        21.3370  -24.1400  -28.5460 C.3   282  MET282      0.1570
     90  C         22.6420  -23.6850  -29.1810 C.2   282  MET282      0.2261
     91  O         22.6380  -23.0710  -30.2560 O.2   282  MET282     -0.2867
     92  CB        21.0290  -23.2830  -27.3190 C.3   282  MET282      0.0387
     93  CG        19.6030  -23.4460  -26.7640 C.3   282  MET282      0.0595
     94  SD        19.3970  -22.8290  -25.0830 S.3   282  MET282     -0.1393
     95  CE        19.5220  -21.0560  -25.3010 C.3   282  MET282      0.0692
     96  N         26.4830  -17.9440  -19.9940 N.3   400  PHE400     -0.1227
     97  CA        25.1410  -18.0720  -19.4430 C.3   400  PHE400      0.1736
     98  C         24.9000  -19.4800  -18.8870 C.2   400  PHE400      0.2595
     99  O         25.8110  -20.3390  -18.9210 O.2   400  PHE400     -0.2718
    100  CB        24.0500  -17.5530  -20.4280 C.3   400  PHE400      0.0547
    101  CG        23.4580  -18.5990  -21.3590 C.ar  400  PHE400     -0.0202
    102  CD1       22.1450  -18.4420  -21.8280 C.ar  400  PHE400     -0.0042
    103  CD2       24.1740  -19.7360  -21.7420 C.ar  400  PHE400     -0.0042
    104  CE1       21.5760  -19.3870  -22.6590 C.ar  400  PHE400     -0.0003
    105  CE2       23.6000  -20.6850  -22.5880 C.ar  400  PHE400     -0.0003
    106  CZ        22.3030  -20.5010  -23.0490 C.ar  400  PHE400     -0.0000
    107  N         23.6970  -19.6710  -18.3470 N.am  401  ASN401     -0.1974
    108  CA        23.2630  -20.8810  -17.6770 C.3   401  ASN401      0.1688
    109  C         24.3510  -21.4720  -16.7790 C.2   401  ASN401      0.2292
    110  O         24.6660  -22.6490  -16.8840 O.2   401  ASN401     -0.2864
    111  CB        22.7150  -21.9040  -18.6870 C.3   401  ASN401      0.1181
    112  CG        21.7950  -22.9370  -18.0180 C.2   401  ASN401      0.2629
    113  OD1       22.0410  -24.1320  -18.0750 O.2   401  ASN401     -0.2716
    114  ND2       20.7630  -22.4570  -17.3280 N.am  401  ASN401     -0.0877
@<TRIPOS>BOND
     1     4     3    2
     2     3     2    1
     3     1     2    1
     4    91    90    2
     5     2     5    1
     6    90    89    1
     7    89    88    1
     8    89    92    1
     9     5     6    1
    10     9    10    1
    11     8     6    1
    12     6     7    1
    13    92    93    1
    14    93    94    1
    15    15    13    1
    16    13    10    1
    17    13    14    1
    18    10    11    1
    19    84    83    2
    20    22    21    1
    21    95    94    1
    22    76    75    2
    23    11    12    2
    24    14    16    1
    25    83    82    1
    26    17    18    1
    27    80    78    1
    28    23    21    1
    29    75    74    1
    30    75    81   am
    31    21    18    1
    32    82    81    1
    33    82    85    1
    34    18    19    1
    35    74    77    1
    36    74    73    1
    37   106   104   ar
    38   106   105   ar
    39    77    78    1
    40    78    79    1
    41   104   102   ar
    42   105   103   ar
    43    86    85    1
    44    85    87    1
    45    19    24   am
    46    19    20    2
    47    24    25    1
    48   102   101   ar
    49   103   101   ar
    50   101   100    1
    51    33    30    1
    52    28    25    1
    53    55    54    1
    54    25    26    1
    55    70    69    2
    56   100    97    1
    57    29    30    1
    58    96    97    1
    59    54    51    1
    60    30    31    1
    61    26    27    2
    62    97    98    1
    63    69    68    1
    64    99    98    2
    65    98   107   am
    66    68    71    1
    67    68    67    1
    68    51    52    1
    69    51    50    1
    70   111   112    1
    71   111   108    1
    72    31    34   am
    73    31    32    2
    74    52    53    2
    75    34    35    1
    76   107   108    1
    77    71    72    1
    78   113   112    2
    79   112   114   am
    80   108   109    1
    81    49    48    1
    82    38    35    1
    83    38    39    1
    84    35    36    1
    85   110   109    2
    86    39    40    1
    87    39    41    1
    88    48    47    1
    89    47    46    1
    90    36    37    2
    91    59    58    2
    92    46    43    1
    93    42    43    1
    94    58    57    1
    95    43    44    1
    96    57    56    1
    97    57    60    1
    98    63    65   ar
    99    63    61   ar
   100    65    66   ar
   101    60    61    1
   102    61    62   ar
   103    44    45    2
   104    66    64   ar
   105    62    64   ar
