@<TRIPOS>MOLECULE
tmp/3d9dA00.pdb
 213 205 0 0 0
SMALL
GASTEIGER

@<TRIPOS>ATOM
      1  N         14.5250  -18.5410  -27.5260 N.3    91  ILE91      -0.1245
      2  CA        15.0790  -18.2400  -26.2020 C.3    91  ILE91       0.1561
      3  C         14.0090  -18.1330  -25.1050 C.2    91  ILE91       0.2260
      4  O         14.2280  -18.5020  -23.9560 O.2    91  ILE91      -0.2867
      5  CB        15.9430  -16.9370  -26.2410 C.3    91  ILE91       0.0252
      6  CG1       16.6660  -16.6910  -24.9150 C.3    91  ILE91       0.0019
      7  CG2       15.1010  -15.7250  -26.5310 C.3    91  ILE91       0.0019
      8  CD1       17.8040  -17.6550  -24.6310 C.3    91  ILE91       0.0001
      9  N         13.6460  -20.4930  -21.8890 N.3    95  ALA95      -0.1245
     10  CA        13.6540  -19.8540  -20.5770 C.3    95  ALA95       0.1562
     11  C         12.4180  -20.2700  -19.7240 C.2    95  ALA95       0.2260
     12  O         12.5170  -20.4780  -18.5170 O.2    95  ALA95      -0.2867
     13  CB        13.7400  -18.3580  -20.7140 C.3    95  ALA95       0.0290
     14  N         12.8810  -23.6530  -18.4140 N.3    98  LEU98      -0.1245
     15  CA        13.7140  -23.6450  -17.2070 C.3    98  LEU98       0.1561
     16  C         12.8870  -23.2390  -16.0040 C.2    98  LEU98       0.2260
     17  O         13.0780  -23.7740  -14.9120 O.2    98  LEU98      -0.2867
     18  CB        14.9050  -22.6790  -17.3100 C.3    98  LEU98       0.0270
     19  CG        16.2610  -22.9770  -16.6330 C.3    98  LEU98       0.0019
     20  CD1       17.0050  -21.6940  -16.2400 C.3    98  LEU98       0.0001
     21  CD2       16.2870  -24.0150  -15.4930 C.3    98  LEU98       0.0001
     22  N         12.9810  -18.9600  -13.9850 N.3   130  LEU130     -0.1245
     23  CA        13.6540  -19.4080  -12.7880 C.3   130  LEU130      0.1561
     24  C         14.6420  -18.3480  -12.3180 C.2   130  LEU130      0.2260
     25  O         15.7260  -18.1470  -12.9070 O.2   130  LEU130     -0.2867
     26  CB        14.2700  -20.7970  -13.0130 C.3   130  LEU130      0.0270
     27  CG        15.2470  -21.4450  -12.0380 C.3   130  LEU130      0.0019
     28  CD1       15.0840  -21.0460  -10.6300 C.3   130  LEU130      0.0001
     29  CD2       15.2980  -22.9570  -12.1690 C.3   130  LEU130      0.0001
     30  N         17.2330  -17.0700  -10.2250 N.3   132  HIS132     -0.1226
     31  CA        18.3500  -17.4440   -9.3910 C.3   132  HIS132      0.1752
     32  C         19.4320  -16.3580   -9.3600 C.2   132  HIS132      0.2597
     33  O         19.8490  -15.8800   -8.2810 O.2   132  HIS132     -0.2718
     34  CB        18.9060  -18.7940   -9.8740 C.3   132  HIS132      0.0759
     35  CG        19.9890  -19.3250   -8.9960 C.ar  132  HIS132      0.0818
     36  ND1       21.3240  -19.1600   -9.2870 N.ar  132  HIS132     -0.2268
     37  CD2       19.9370  -19.9500   -7.7950 C.ar  132  HIS132      0.1154
     38  CE1       22.0470  -19.7000   -8.3230 C.ar  132  HIS132      0.1986
     39  NE2       21.2290  -20.1710   -7.3980 N.ar  132  HIS132     -0.2212
     40  N         19.8840  -15.9530  -10.5470 N.am  133  SER133     -0.1938
     41  CA        20.9770  -14.9760  -10.6900 C.3   133  SER133      0.2055
     42  C         20.7330  -13.6340  -10.0080 C.2   133  SER133      0.2642
     43  O         19.6060  -13.1950   -9.9400 O.2   133  SER133     -0.2714
     44  CB        21.2900  -14.7670  -12.1710 C.3   133  SER133      0.2130
     45  OG        21.5640  -16.0210  -12.7950 O.3   133  SER133     -0.2179
     46  N         21.8130  -12.9940   -9.5330 N.am  134  GLU134     -0.1976
     47  CA        21.7750  -11.7530   -8.7710 C.3   134  GLU134      0.1602
     48  C         22.8630  -10.7750   -9.2370 C.2   134  GLU134      0.2287
     49  O         23.8960  -11.1940   -9.7990 O.2   134  GLU134     -0.2864
     50  CB        21.9550  -12.0360   -7.2650 C.3   134  GLU134      0.0415
     51  CG        20.9250  -13.0490   -6.7330 C.3   134  GLU134      0.1163
     52  CD        21.0060  -13.2820   -5.2190 C.2   134  GLU134      0.3649
     53  OE1       22.0940  -13.1250   -4.5940 O.co2 134  GLU134     -0.2457
     54  OE2       19.9550  -13.6690   -4.6660 O.co2 134  GLU134     -0.2457
     55  N         26.4460  -11.5460   -8.2840 N.3   137  GLY137     -0.1210
     56  CA        27.0340  -12.8310   -8.7000 C.3   137  GLY137      0.1956
     57  C         26.3760  -14.0040   -7.9710 C.2   137  GLY137      0.2613
     58  O         25.7240  -13.8060   -6.9430 O.2   137  GLY137     -0.2717
     59  N         26.5180  -15.2060   -8.5350 N.am  138  THR138     -0.1938
     60  CA        26.0470  -16.4600   -7.9230 C.3   138  THR138      0.2028
     61  C         27.0710  -17.6310   -7.9380 C.2   138  THR138      0.2642
     62  O         26.7730  -18.7080   -7.4110 O.2   138  THR138     -0.2714
     63  CB        24.6970  -16.9520   -8.5070 C.3   138  THR138      0.1808
     64  OG1       24.7600  -17.0360   -9.9390 O.3   138  THR138     -0.2208
     65  CG2       23.5300  -16.0470   -8.0670 C.3   138  THR138      0.0379
     66  N         28.2690  -17.4270   -8.4950 N.am  139  ALA139     -0.1963
     67  CA        29.2250  -18.5410   -8.6340 C.3   139  ALA139      0.1728
     68  C         29.5640  -19.1140   -7.2620 C.2   139  ALA139      0.2616
     69  O         29.8970  -20.2910   -7.1180 O.2   139  ALA139     -0.2715
     70  CB        30.4830  -18.1100   -9.3810 C.3   139  ALA139      0.0334
     71  N         29.4370  -18.2590   -6.2540 N.am  140  ASN140     -0.1972
     72  CA        29.7890  -18.6230   -4.9190 C.3   140  ASN140      0.1688
     73  C         28.5480  -18.7730   -4.0030 C.2   140  ASN140      0.2292
     74  O         28.6820  -18.7890   -2.8020 O.2   140  ASN140     -0.2864
     75  CB        30.8180  -17.6030   -4.3710 C.3   140  ASN140      0.1181
     76  CG        32.0240  -17.4300   -5.2950 C.2   140  ASN140      0.2629
     77  OD1       32.1690  -16.4120   -5.9950 O.2   140  ASN140     -0.2716
     78  ND2       32.8510  -18.4300   -5.3530 N.am  140  ASN140     -0.0877
     79  N         19.2520  -10.8900  -14.5650 N.3   168  TRP168     -0.1228
     80  CA        19.4690  -11.8400  -15.6770 C.3   168  TRP168      0.1722
     81  C         18.3550  -12.8810  -15.9890 C.2   168  TRP168      0.2437
     82  O         18.3160  -13.4020  -17.1080 O.2   168  TRP168     -0.2733
     83  CB        20.7970  -12.5920  -15.5360 C.3   168  TRP168      0.0563
     84  CG        22.0350  -11.7470  -15.3230 C.ar  168  TRP168      0.0003
     85  CD1       22.7790  -11.6430  -14.1700 C.ar  168  TRP168      0.0946
     86  CD2       22.6910  -10.9330  -16.3000 C.ar  168  TRP168      0.0152
     87  NE1       23.8440  -10.8060  -14.3700 N.ar  168  TRP168     -0.2442
     88  CE2       23.8220  -10.3500  -15.6640 C.ar  168  TRP168      0.0810
     89  CE3       22.4340  -10.6350  -17.6500 C.ar  168  TRP168      0.0012
     90  CZ2       24.7050   -9.4780  -16.3370 C.ar  168  TRP168      0.0191
     91  CZ3       23.3020   -9.7630  -18.3230 C.ar  168  TRP168      0.0001
     92  CH2       24.4330   -9.2040  -17.6640 C.ar  168  TRP168      0.0015
     93  N         17.4650  -13.2110  -15.0170 N.am  169  PRO169     -0.2718
     94  CA        16.5670  -14.3310  -15.3200 C.3   169  PRO169      0.1535
     95  C         15.5660  -14.0250  -16.4510 C.2   169  PRO169      0.2599
     96  O         14.7100  -13.1630  -16.3160 O.2   169  PRO169     -0.2715
     97  CB        15.8510  -14.6060  -13.9960 C.3   169  PRO169      0.0310
     98  CG        16.3760  -13.6590  -13.0270 C.3   169  PRO169      0.0237
     99  CD        17.1930  -12.6310  -13.6930 C.3   169  PRO169      0.0939
    100  N         15.7120  -14.7230  -17.5670 N.am  170  SER170     -0.1950
    101  CA        14.9210  -14.4540  -18.7410 C.3   170  SER170      0.1924
    102  C         13.4290  -14.6160  -18.4180 C.2   170  SER170      0.2314
    103  O         13.0650  -15.5180  -17.6400 O.2   170  SER170     -0.2863
    104  CB        15.4020  -15.3250  -19.9270 C.3   170  SER170      0.2116
    105  OG        16.4670  -14.6630  -20.6770 O.3   170  SER170     -0.2180
    106  N         21.9380   -6.3560  -24.1590 N.3   233  LEU233     -0.1245
    107  CA        22.8530   -7.4790  -24.3520 C.3   233  LEU233      0.1561
    108  C         23.5620   -7.3770  -25.6900 C.2   233  LEU233      0.2260
    109  O         23.0100   -6.8250  -26.6430 O.2   233  LEU233     -0.2867
    110  CB        22.0980   -8.8090  -24.2840 C.3   233  LEU233      0.0270
    111  CG        21.2360   -9.0860  -23.0410 C.3   233  LEU233      0.0019
    112  CD1       20.6960  -10.4770  -23.1710 C.3   233  LEU233      0.0001
    113  CD2       22.0520   -8.9290  -21.7680 C.3   233  LEU233      0.0001
    114  N         21.3260  -11.9340  -28.5660 N.3   236  HIS236     -0.1241
    115  CA        20.0320  -12.3000  -27.9650 C.3   236  HIS236      0.1621
    116  C         19.3510  -11.0010  -27.4990 C.2   236  HIS236      0.2264
    117  O         18.9060  -10.8700  -26.3490 O.2   236  HIS236     -0.2867
    118  CB        20.2390  -13.3020  -26.8080 C.3   236  HIS236      0.0745
    119  CG        20.9040  -14.5610  -27.2520 C.ar  236  HIS236      0.0817
    120  ND1       20.2220  -15.5690  -27.8980 N.ar  236  HIS236     -0.2268
    121  CD2       22.2050  -14.9380  -27.2240 C.ar  236  HIS236      0.1154
    122  CE1       21.0680  -16.5300  -28.2190 C.ar  236  HIS236      0.1986
    123  NE2       22.2780  -16.1710  -27.8220 N.ar  236  HIS236     -0.2212
    124  N         15.6890  -10.7820  -25.9010 N.3   239  THR239     -0.1218
    125  CA        15.2180  -11.3870  -24.6620 C.3   239  THR239      0.1862
    126  C         15.0440  -10.3290  -23.5960 C.2   239  THR239      0.2287
    127  O         15.5590   -9.2290  -23.7200 O.2   239  THR239     -0.2866
    128  CB        16.1310  -12.5500  -24.1420 C.3   239  THR239      0.1770
    129  OG1       15.4070  -13.3250  -23.1730 O.3   239  THR239     -0.2211
    130  CG2       17.4140  -12.0120  -23.4840 C.3   239  THR239      0.0375
    131  N         19.1100  -26.8300  -13.2150 N.3   272  PHE272     -0.1241
    132  CA        20.2810  -26.3230  -13.9330 C.3   272  PHE272      0.1605
    133  C         21.1790  -27.3900  -14.5850 C.2   272  PHE272      0.2264
    134  O         21.9130  -27.0740  -15.5300 O.2   272  PHE272     -0.2867
    135  CB        21.1160  -25.3730  -13.0660 C.3   272  PHE272      0.0534
    136  CG        20.5200  -23.9880  -12.9360 C.ar  272  PHE272     -0.0203
    137  CD1       19.6830  -23.6690  -11.8600 C.ar  272  PHE272     -0.0042
    138  CD2       20.7670  -23.0120  -13.8950 C.ar  272  PHE272     -0.0042
    139  CE1       19.1340  -22.4110  -11.7370 C.ar  272  PHE272     -0.0003
    140  CE2       20.2200  -21.7300  -13.7640 C.ar  272  PHE272     -0.0003
    141  CZ        19.3980  -21.4330  -12.6920 C.ar  272  PHE272     -0.0000
    142  N         27.2590  -15.7090  -25.8470 N.3   396  CYS396     -0.1235
    143  CA        26.3940  -15.8630  -24.7060 C.3   396  CYS396      0.1677
    144  C         26.5870  -17.2330  -24.0410 C.2   396  CYS396      0.2270
    145  O         26.4940  -17.3590  -22.8340 O.2   396  CYS396     -0.2867
    146  CB        24.9250  -15.7560  -25.1240 C.3   396  CYS396      0.0956
    147  SG        23.8340  -15.6410  -23.6770 S.3   396  CYS396     -0.0801
    148  N         29.0560  -18.1780  -21.1470 N.3   399  LEU399     -0.1231
    149  CA        28.8370  -17.2990  -19.9950 C.3   399  LEU399      0.1693
    150  C         27.5270  -17.5910  -19.2440 C.2   399  LEU399      0.2592
    151  O         27.4610  -17.4380  -18.0300 O.2   399  LEU399     -0.2718
    152  CB        28.8300  -15.8110  -20.4360 C.3   399  LEU399      0.0284
    153  CG        29.9500  -15.2970  -21.3760 C.3   399  LEU399      0.0019
    154  CD1       29.7770  -13.8100  -21.7730 C.3   399  LEU399      0.0001
    155  CD2       31.3610  -15.5550  -20.7890 C.3   399  LEU399      0.0001
    156  N         26.4830  -17.9440  -19.9940 N.am  400  PHE400     -0.1962
    157  CA        25.1410  -18.0720  -19.4430 C.3   400  PHE400      0.1771
    158  C         24.9000  -19.4800  -18.8870 C.2   400  PHE400      0.2620
    159  O         25.8110  -20.3390  -18.9210 O.2   400  PHE400     -0.2715
    160  CB        24.0500  -17.5530  -20.4280 C.3   400  PHE400      0.0574
    161  CG        23.4580  -18.5990  -21.3590 C.ar  400  PHE400     -0.0200
    162  CD1       22.1450  -18.4420  -21.8280 C.ar  400  PHE400     -0.0042
    163  CD2       24.1740  -19.7360  -21.7420 C.ar  400  PHE400     -0.0042
    164  CE1       21.5760  -19.3870  -22.6590 C.ar  400  PHE400     -0.0003
    165  CE2       23.6000  -20.6850  -22.5880 C.ar  400  PHE400     -0.0003
    166  CZ        22.3030  -20.5010  -23.0490 C.ar  400  PHE400     -0.0000
    167  N         23.6970  -19.6710  -18.3470 N.am  401  ASN401     -0.1958
    168  CA        23.2630  -20.8810  -17.6770 C.3   401  ASN401      0.1819
    169  C         24.3510  -21.4720  -16.7790 C.2   401  ASN401      0.2622
    170  O         24.6660  -22.6490  -16.8840 O.2   401  ASN401     -0.2715
    171  CB        22.7150  -21.9040  -18.6870 C.3   401  ASN401      0.1195
    172  CG        21.7950  -22.9370  -18.0180 C.2   401  ASN401      0.2630
    173  OD1       22.0410  -24.1320  -18.0750 O.2   401  ASN401     -0.2716
    174  ND2       20.7630  -22.4570  -17.3280 N.am  401  ASN401     -0.0877
    175  N         24.9250  -20.6470  -15.8970 N.am  402  GLY402     -0.1940
    176  CA        26.0970  -21.0690  -15.1210 C.3   402  GLY402      0.2014
    177  C         27.3480  -21.0320  -15.9770 C.2   402  GLY402      0.2639
    178  O         27.5730  -21.9550  -16.7730 O.2   402  GLY402     -0.2714
    179  N         28.1350  -19.9550  -15.8690 N.am  403  GLY403     -0.1954
    180  CA        29.3950  -19.8140  -16.6530 C.3   403  GLY403      0.1869
    181  C         30.3210  -21.0220  -16.5010 C.2   403  GLY403      0.2309
    182  O         30.3200  -21.6960  -15.4610 O.2   403  GLY403     -0.2863
    183  N         33.6130  -21.0500  -16.2380 N.3   405  ILE405     -0.1231
    184  CA        34.7620  -20.8360  -15.3620 C.3   405  ILE405      0.1692
    185  C         34.3890  -20.9130  -13.8660 C.2   405  ILE405      0.2593
    186  O         35.0630  -21.5800  -13.0890 O.2   405  ILE405     -0.2718
    187  CB        35.4810  -19.4590  -15.6330 C.3   405  ILE405      0.0266
    188  CG1       35.8390  -19.2800  -17.1120 C.3   405  ILE405      0.0019
    189  CG2       36.7240  -19.2990  -14.7510 C.3   405  ILE405      0.0020
    190  CD1       36.5650  -20.4570  -17.7290 C.3   405  ILE405      0.0001
    191  N         33.3430  -20.1890  -13.4680 N.am  406  GLY406     -0.1942
    192  CA        32.9880  -20.0950  -12.0450 C.3   406  GLY406      0.2014
    193  C         32.0270  -21.1650  -11.5680 C.2   406  GLY406      0.2638
    194  O         32.0750  -21.5670  -10.4150 O.2   406  GLY406     -0.2714
    195  N         31.1400  -21.6190  -12.4360 N.am  407  LEU407     -0.1977
    196  CA        30.1460  -22.5920  -12.0140 C.3   407  LEU407      0.1596
    197  C         30.3700  -24.0240  -12.5380 C.2   407  LEU407      0.2287
    198  O         30.5930  -24.9500  -11.7300 O.2   407  LEU407     -0.2864
    199  CB        28.7070  -22.0680  -12.2820 C.3   407  LEU407      0.0297
    200  CG        28.1880  -21.1390  -11.1700 C.3   407  LEU407      0.0022
    201  CD1       27.0510  -20.1620  -11.6340 C.3   407  LEU407      0.0001
    202  CD2       27.7570  -21.9190   -9.8710 C.3   407  LEU407      0.0001
    203  N         33.5430  -25.9390  -11.7220 N.3   410  ARG410     -0.1245
    204  CA        33.6370  -26.1250  -10.2670 C.3   410  ARG410      0.1563
    205  C         32.7170  -27.2310   -9.7910 C.2   410  ARG410      0.2260
    206  O         33.0970  -28.0460   -8.9050 O.2   410  ARG410     -0.2867
    207  CB        33.3140  -24.8120   -9.5380 C.3   410  ARG410      0.0307
    208  CG        34.5240  -23.9110   -9.2140 C.3   410  ARG410      0.0489
    209  CD        35.3960  -23.6140  -10.4130 C.3   410  ARG410      0.2205
    210  NE        36.4120  -24.6290  -10.6680 N.pl3 410  ARG410     -0.0865
    211  CZ        37.2690  -24.5480  -11.6930 C.cat 410  ARG410      0.5346
    212  NH1       37.2030  -23.5100  -12.5510 N.pl3 410  ARG410      0.1354
    213  NH2       38.1990  -25.4680  -11.8610 N.pl3 410  ARG410      0.1354
@<TRIPOS>BOND
     1   114   115    1
     2   122   120   ar
     3   122   123   ar
     4   115   116    1
     5   115   118    1
     6   120   119   ar
     7   123   121   ar
     8     1     2    1
     9   116   117    2
    10   119   121   ar
    11   119   118    1
    12   109   108    2
    13     7     5    1
    14     5     2    1
    15     5     6    1
    16     2     3    1
    17   124   125    1
    18   142   143    1
    19   108   107    1
    20   146   143    1
    21   146   147    1
    22     3     4    2
    23     6     8    1
    24   143   144    1
    25   125   128    1
    26   125   126    1
    27   107   110    1
    28   107   106    1
    29   110   111    1
    30   128   130    1
    31   128   129    1
    32   144   145    2
    33   127   126    2
    34   112   111    1
    35   166   164   ar
    36   166   165   ar
    37   111   113    1
    38   164   162   ar
    39   165   163   ar
    40     9    10    1
    41   162   161   ar
    42   154   153    1
    43   163   161   ar
    44   153   155    1
    45   153   152    1
    46   161   160    1
    47   148   149    1
    48    13    10    1
    49   105   104    1
    50    10    11    1
    51   152   149    1
    52   160   157    1
    53   149   150    1
    54   156   157    1
    55   156   150   am
    56   104   101    1
    57    11    12    2
    58   157   158    1
    59   150   151    2
    60   159   158    2
    61   158   167   am
    62   101   102    1
    63   101   100    1
    64   171   172    1
    65   171   168    1
    66   102   103    2
    67    14    15    1
    68   167   168    1
    69    91    92   ar
    70    91    89   ar
    71   173   172    2
    72   172   174   am
    73   190   188    1
    74   168   169    1
    75    92    90   ar
    76    89    86   ar
    77   100    95   am
    78    18    15    1
    79    18    19    1
    80    15    16    1
    81   188   187    1
    82    82    81    2
    83   170   169    2
    84   169   175   am
    85   178   177    2
    86   180   181    1
    87   180   179    1
    88    19    20    1
    89    19    21    1
    90   181   182    2
    91    95    96    2
    92    95    94    1
    93    90    88   ar
    94    86    88   ar
    95    86    84   ar
    96   183   184    1
    97    16    17    2
    98    81    80    1
    99    81    93   am
   100   177   179   am
   101   177   176    1
   102   175   176    1
   103    80    83    1
   104    80    79    1
   105    88    87   ar
   106   187   184    1
   107   187   189    1
   108    83    84    1
   109   134   133    2
   110   184   185    1
   111    84    85   ar
   112    94    93    1
   113    94    97    1
   114    93    99    1
   115   133   132    1
   116    87    85   ar
   117    97    98    1
   118    22    23    1
   119   132   131    1
   120   132   135    1
   121   138   140   ar
   122   138   136   ar
   123   185   191   am
   124   185   186    2
   125   140   141   ar
   126    99    98    1
   127   191   192    1
   128   135   136    1
   129    26    23    1
   130    26    27    1
   131   136   137   ar
   132    25    24    2
   133    45    44    1
   134    23    24    1
   135   141   139   ar
   136   212   211    1
   137   197   196    1
   138   197   198    2
   139   195   196    1
   140   195   193   am
   141   199   196    1
   142   199   200    1
   143    44    41    1
   144    29    27    1
   145   192   193    1
   146    27    28    1
   147   213   211    1
   148   137   139   ar
   149   203   204    1
   150   211   210    2
   151   201   200    1
   152   193   194    2
   153   200   202    1
   154    41    40    1
   155    41    42    1
   156   210   209    1
   157    40    32   am
   158   209   208    1
   159   204   205    1
   160   204   207    1
   161    30    31    1
   162    42    43    2
   163    42    46   am
   164    64    63    1
   165    34    31    1
   166    34    35    1
   167    49    48    2
   168   205   206    2
   169   207   208    1
   170    46    47    1
   171    31    32    1
   172    70    67    1
   173    32    33    2
   174    36    35   ar
   175    36    38   ar
   176    48    47    1
   177    35    37   ar
   178    47    50    1
   179    56    55    1
   180    56    57    1
   181    67    66    1
   182    67    68    1
   183    59    57   am
   184    59    60    1
   185    63    65    1
   186    63    60    1
   187    66    61   am
   188    38    39   ar
   189    57    58    2
   190    61    60    1
   191    61    62    2
   192    37    39   ar
   193    50    51    1
   194    68    69    2
   195    68    71   am
   196    51    52    1
   197    71    72    1
   198    77    76    2
   199    78    76   am
   200    76    75    1
   201    52    54   ar
   202    52    53   ar
   203    72    75    1
   204    72    73    1
   205    73    74    2
