@<TRIPOS>MOLECULE
tmp/3d9eA01.pdb
 123 113 0 0 0
SMALL
GASTEIGER

@<TRIPOS>ATOM
      1  N         13.8080  -33.6570  -27.8400 N.3    75  GLU75      -0.1245
      2  CA        14.0330  -32.2700  -27.4290 C.3    75  GLU75       0.1567
      3  C         15.2970  -31.6770  -28.0720 C.2    75  GLU75       0.2260
      4  O         15.2780  -30.5460  -28.5660 O.2    75  GLU75      -0.2867
      5  CB        14.0810  -32.1610  -25.9010 C.3    75  GLU75       0.0388
      6  CG        14.3710  -30.7500  -25.3380 C.3    75  GLU75       0.1160
      7  CD        13.2420  -29.7460  -25.5570 C.2    75  GLU75       0.3649
      8  OE1       12.2580  -30.0670  -26.2690 O.co2  75  GLU75      -0.2457
      9  OE2       13.3360  -28.6260  -25.0020 O.co2  75  GLU75      -0.2457
     10  N         15.5640  -28.5040  -30.7140 N.3    79  LEU79      -0.1245
     11  CA        16.3100  -27.2910  -30.3400 C.3    79  LEU79       0.1561
     12  C         17.4150  -26.9370  -31.3420 C.2    79  LEU79       0.2260
     13  O         17.6690  -25.7600  -31.6030 O.2    79  LEU79      -0.2867
     14  CB        16.8940  -27.4220  -28.9300 C.3    79  LEU79       0.0270
     15  CG        15.9230  -27.5140  -27.7430 C.3    79  LEU79       0.0019
     16  CD1       16.6590  -27.2820  -26.4080 C.3    79  LEU79       0.0001
     17  CD2       14.7450  -26.5210  -27.9060 C.3    79  LEU79       0.0001
     18  N         14.6210  -19.0730  -27.8810 N.3    91  ILE91      -0.1245
     19  CA        15.2030  -18.8030  -26.5800 C.3    91  ILE91       0.1561
     20  C         14.1140  -18.6570  -25.5180 C.2    91  ILE91       0.2260
     21  O         14.3450  -18.9380  -24.3430 O.2    91  ILE91      -0.2867
     22  CB        16.0820  -17.5120  -26.6290 C.3    91  ILE91       0.0252
     23  CG1       16.9510  -17.3570  -25.3740 C.3    91  ILE91       0.0019
     24  CG2       15.2270  -16.2600  -26.8230 C.3    91  ILE91       0.0019
     25  CD1       17.8230  -18.5550  -25.0520 C.3    91  ILE91       0.0001
     26  N         12.8010  -22.3010  -24.5820 N.3    94  VAL94      -0.1231
     27  CA        13.7340  -22.9770  -23.6760 C.3    94  VAL94       0.1692
     28  C         13.8020  -22.3320  -22.2910 C.2    94  VAL94       0.2591
     29  O         13.9610  -23.0420  -21.2930 O.2    94  VAL94      -0.2718
     30  CB        15.1800  -23.1580  -24.2660 C.3    94  VAL94       0.0266
     31  CG1       15.1630  -24.0060  -25.4940 C.3    94  VAL94       0.0020
     32  CG2       15.8550  -21.8240  -24.5540 C.3    94  VAL94       0.0020
     33  N         13.6990  -21.0030  -22.2110 N.am   95  ALA95      -0.1980
     34  CA        13.7360  -20.3450  -20.9000 C.3    95  ALA95       0.1597
     35  C         12.5020  -20.7150  -20.0460 C.2    95  ALA95       0.2287
     36  O         12.6190  -20.9170  -18.8240 O.2    95  ALA95      -0.2864
     37  CB        13.8590  -18.8510  -21.0430 C.3    95  ALA95       0.0319
     38  N         10.8300  -23.5800  -20.4970 N.3    97  ALA97      -0.1231
     39  CA        11.1210  -24.9740  -20.1560 C.3    97  ALA97       0.1694
     40  C         11.9620  -25.1090  -18.8850 C.2    97  ALA97       0.2591
     41  O         11.6900  -25.9690  -18.0430 O.2    97  ALA97      -0.2718
     42  CB        11.8020  -25.6650  -21.3130 C.3    97  ALA97       0.0304
     43  N         12.9680  -24.2590  -18.7350 N.am   98  LEU98      -0.1980
     44  CA        13.7600  -24.2510  -17.5140 C.3    98  LEU98       0.1596
     45  C         12.8970  -23.7950  -16.3550 C.2    98  LEU98       0.2287
     46  O         13.0000  -24.3350  -15.2560 O.2    98  LEU98      -0.2864
     47  CB        15.0070  -23.3550  -17.6420 C.3    98  LEU98       0.0297
     48  CG        15.9310  -23.1780  -16.4220 C.3    98  LEU98       0.0022
     49  CD1       16.4880  -24.5100  -15.9490 C.3    98  LEU98       0.0001
     50  CD2       17.0860  -22.2060  -16.6860 C.3    98  LEU98       0.0001
     51  N         10.8160  -26.5870  -15.1140 N.3   101  MET101     -0.1245
     52  CA        11.5500  -27.7620  -14.6390 C.3   101  MET101      0.1570
     53  C         11.5170  -28.0730  -13.1450 C.2   101  MET101      0.2261
     54  O         11.3450  -29.2200  -12.7940 O.2   101  MET101     -0.2867
     55  CB        12.9730  -27.8110  -15.1970 C.3   101  MET101      0.0387
     56  CG        13.2000  -29.0360  -16.0630 C.3   101  MET101      0.0595
     57  SD        14.6910  -28.8920  -17.0640 S.3   101  MET101     -0.1393
     58  CE        15.3840  -27.3740  -16.4340 C.3   101  MET101      0.0692
     59  N         15.7250  -15.2340  -17.8890 N.3   170  SER170     -0.1217
     60  CA        14.9450  -14.9680  -19.0690 C.3   170  SER170      0.1889
     61  C         13.4730  -15.1490  -18.7530 C.2   170  SER170      0.2288
     62  O         13.1090  -16.0830  -18.0300 O.2   170  SER170     -0.2866
     63  CB        15.4170  -15.8490  -20.2370 C.3   170  SER170      0.2089
     64  OG        16.3720  -15.1530  -21.0450 O.3   170  SER170     -0.2183
     65  N         19.1220  -27.3250  -13.5240 N.3   272  PHE272     -0.1241
     66  CA        20.2990  -26.7910  -14.2190 C.3   272  PHE272      0.1605
     67  C         21.2360  -27.8320  -14.8510 C.2   272  PHE272      0.2264
     68  O         22.0090  -27.4930  -15.7510 O.2   272  PHE272     -0.2867
     69  CB        21.0780  -25.8400  -13.3100 C.3   272  PHE272      0.0534
     70  CG        20.5100  -24.4460  -13.2610 C.ar  272  PHE272     -0.0203
     71  CD1       19.7430  -24.0300  -12.1740 C.ar  272  PHE272     -0.0042
     72  CD2       20.7620  -23.5380  -14.2860 C.ar  272  PHE272     -0.0042
     73  CE1       19.2370  -22.7400  -12.1010 C.ar  272  PHE272     -0.0003
     74  CE2       20.2510  -22.2420  -14.2290 C.ar  272  PHE272     -0.0003
     75  CZ        19.4890  -21.8410  -13.1300 C.ar  272  PHE272     -0.0000
     76  N         19.3130  -28.6440  -18.1810 N.3   275  SER275     -0.1217
     77  CA        19.5420  -27.5370  -19.1110 C.3   275  SER275      0.1889
     78  C         20.9860  -27.5660  -19.6080 C.2   275  SER275      0.2288
     79  O         21.2160  -27.3770  -20.8140 O.2   275  SER275     -0.2866
     80  CB        19.1930  -26.1880  -18.4770 C.3   275  SER275      0.2089
     81  OG        20.0190  -25.9150  -17.3650 O.3   275  SER275     -0.2183
     82  N         21.0990  -29.7810  -22.4400 N.3   278  LEU278     -0.1231
     83  CA        20.2740  -29.3970  -23.5950 C.3   278  LEU278      0.1693
     84  C         20.7460  -28.1380  -24.3340 C.2   278  LEU278      0.2591
     85  O         20.5540  -27.9960  -25.5440 O.2   278  LEU278     -0.2718
     86  CB        18.7990  -29.2840  -23.1800 C.3   278  LEU278      0.0284
     87  CG        18.0680  -30.6360  -23.0760 C.3   278  LEU278      0.0019
     88  CD1       16.7300  -30.4610  -22.3550 C.3   278  LEU278      0.0001
     89  CD2       17.8730  -31.3220  -24.4570 C.3   278  LEU278      0.0001
     90  N         21.3520  -27.2300  -23.5740 N.am  279  VAL279     -0.1980
     91  CA        21.9930  -26.0200  -24.0570 C.3   279  VAL279      0.1595
     92  C         23.0410  -26.3410  -25.1430 C.2   279  VAL279      0.2287
     93  O         23.2800  -25.5450  -26.0630 O.2   279  VAL279     -0.2864
     94  CB        22.5940  -25.3020  -22.8340 C.3   279  VAL279      0.0276
     95  CG1       24.0170  -24.8910  -23.0290 C.3   279  VAL279      0.0022
     96  CG2       21.6970  -24.1700  -22.3710 C.3   279  VAL279      0.0022
     97  N         21.5150  -26.0510  -28.4320 N.3   282  MET282     -0.1245
     98  CA        21.4340  -24.6560  -28.8070 C.3   282  MET282      0.1570
     99  C         22.7340  -24.1990  -29.4750 C.2   282  MET282      0.2261
    100  O         22.7050  -23.6280  -30.5720 O.2   282  MET282     -0.2867
    101  CB        21.1170  -23.8000  -27.5820 C.3   282  MET282      0.0387
    102  CG        19.7100  -23.9910  -27.0480 C.3   282  MET282      0.0595
    103  SD        19.4650  -23.2930  -25.4060 S.3   282  MET282     -0.1393
    104  CE        19.8000  -21.5530  -25.6220 C.3   282  MET282      0.0692
    105  N         26.4880  -18.4190  -20.2530 N.3   400  PHE400     -0.1227
    106  CA        25.1560  -18.4720  -19.6740 C.3   400  PHE400      0.1736
    107  C         24.8730  -19.8710  -19.1250 C.2   400  PHE400      0.2595
    108  O         25.7160  -20.7730  -19.2560 O.2   400  PHE400     -0.2718
    109  CB        24.0950  -17.9580  -20.6760 C.3   400  PHE400      0.0547
    110  CG        23.5020  -19.0140  -21.5810 C.ar  400  PHE400     -0.0202
    111  CD1       22.1700  -18.9200  -21.9710 C.ar  400  PHE400     -0.0042
    112  CD2       24.2490  -20.0850  -22.0430 C.ar  400  PHE400     -0.0042
    113  CE1       21.5980  -19.8650  -22.7930 C.ar  400  PHE400     -0.0003
    114  CE2       23.6740  -21.0580  -22.8750 C.ar  400  PHE400     -0.0003
    115  CZ        22.3370  -20.9340  -23.2450 C.ar  400  PHE400     -0.0000
    116  N         23.7090  -20.0370  -18.5000 N.am  401  ASN401     -0.1974
    117  CA        23.2930  -21.3120  -17.9120 C.3   401  ASN401      0.1688
    118  C         24.4020  -21.9300  -17.0550 C.2   401  ASN401      0.2292
    119  O         24.7570  -23.1000  -17.2250 O.2   401  ASN401     -0.2864
    120  CB        22.8410  -22.2860  -18.9880 C.3   401  ASN401      0.1181
    121  CG        21.9130  -23.3520  -18.4300 C.2   401  ASN401      0.2629
    122  OD1       22.1280  -24.5620  -18.5910 O.2   401  ASN401     -0.2716
    123  ND2       20.8870  -22.8990  -17.7220 N.am  401  ASN401     -0.0877
@<TRIPOS>BOND
     1    13    12    2
     2    12    11    1
     3    10    11    1
     4   100    99    2
     5    11    14    1
     6    99    98    1
     7    14    15    1
     8    98    97    1
     9    98   101    1
    10     4     3    2
    11     3     2    1
    12    17    15    1
    13    18    19    1
    14     1     2    1
    15    15    16    1
    16   101   102    1
    17     2     5    1
    18   102   103    1
    19    24    22    1
    20    22    19    1
    21    22    23    1
    22    19    20    1
    23     8     7   ar
    24    93    92    2
    25     5     6    1
    26   104   103    1
    27     7     6    1
    28     7     9   ar
    29    85    84    2
    30    20    21    2
    31    31    30    1
    32    23    25    1
    33    92    91    1
    34    26    27    1
    35    32    30    1
    36    89    87    1
    37    84    83    1
    38    84    90   am
    39    30    27    1
    40    91    90    1
    41    91    94    1
    42    27    28    1
    43    83    86    1
    44    83    82    1
    45   115   114   ar
    46   115   113   ar
    47    86    87    1
    48    87    88    1
    49    95    94    1
    50   114   112   ar
    51    94    96    1
    52   113   111   ar
    53    28    33   am
    54    28    29    2
    55    33    34    1
    56   112   110   ar
    57   111   110   ar
    58   110   109    1
    59    42    39    1
    60    64    63    1
    61    37    34    1
    62    34    35    1
    63    79    78    2
    64   109   106    1
    65    38    39    1
    66   105   106    1
    67    63    60    1
    68    39    40    1
    69    35    36    2
    70   106   107    1
    71    78    77    1
    72   108   107    2
    73   107   116   am
    74    77    80    1
    75    77    76    1
    76    60    61    1
    77    60    59    1
    78   120   121    1
    79   120   117    1
    80    40    43   am
    81    40    41    2
    82    61    62    2
    83    43    44    1
    84   122   121    2
    85   116   117    1
    86    80    81    1
    87   121   123   am
    88   117   118    1
    89    47    44    1
    90    47    48    1
    91    44    45    1
    92   119   118    2
    93    57    58    1
    94    57    56    1
    95    50    48    1
    96    48    49    1
    97    45    46    2
    98    56    55    1
    99    68    67    2
   100    55    52    1
   101    51    52    1
   102    67    66    1
   103    52    53    1
   104    72    74   ar
   105    72    70   ar
   106    74    75   ar
   107    66    65    1
   108    66    69    1
   109    69    70    1
   110    70    71   ar
   111    53    54    2
   112    75    73   ar
   113    71    73   ar
