@<TRIPOS>MOLECULE
tmp/3d9gA01.pdb
 122 117 0 0 0
SMALL
GASTEIGER

@<TRIPOS>ATOM
      1  N         40.4480    4.3030  -36.9360 N.3    91  ILE91      -0.1245
      2  CA        40.4440    3.5160  -38.1630 C.3    91  ILE91       0.1561
      3  C         40.5960    4.3970  -39.4210 C.2    91  ILE91       0.2260
      4  O         41.3010    4.0370  -40.3690 O.2    91  ILE91      -0.2867
      5  CB        39.1810    2.5860  -38.2540 C.3    91  ILE91       0.0252
      6  CG1       39.2940    1.6090  -39.4340 C.3    91  ILE91       0.0019
      7  CG2       37.8840    3.3790  -38.3580 C.3    91  ILE91       0.0019
      8  CD1       40.4740    0.6590  -39.3330 C.3    91  ILE91       0.0001
      9  N         44.3210    5.5880  -40.0410 N.3    94  VAL94      -0.1231
     10  CA        45.2560    4.5730  -40.5340 C.3    94  VAL94       0.1692
     11  C         44.8640    4.0990  -41.9400 C.2    94  VAL94       0.2591
     12  O         45.7180    3.7240  -42.7430 O.2    94  VAL94      -0.2718
     13  CB        45.4040    3.4150  -39.5180 C.3    94  VAL94       0.0266
     14  CG1       44.1090    2.5770  -39.4300 C.3    94  VAL94       0.0020
     15  CG2       46.6240    2.5460  -39.8590 C.3    94  VAL94       0.0020
     16  N         43.5690    4.1410  -42.2360 N.am   95  ALA95      -0.1980
     17  CA        43.0800    3.9030  -43.5860 C.3    95  ALA95       0.1597
     18  C         43.5300    5.0150  -44.5440 C.2    95  ALA95       0.2287
     19  O         43.8570    4.7430  -45.7040 O.2    95  ALA95      -0.2864
     20  CB        41.5940    3.7780  -43.5830 C.3    95  ALA95       0.0319
     21  N         47.2150    4.2190  -45.2170 N.3    98  LEU98      -0.1245
     22  CA        47.2990    3.2200  -46.2780 C.3    98  LEU98       0.1561
     23  C         47.0970    3.8660  -47.6500 C.2    98  LEU98       0.2260
     24  O         47.8540    3.5830  -48.5940 O.2    98  LEU98      -0.2867
     25  CB        46.2090    2.1570  -46.0920 C.3    98  LEU98       0.0270
     26  CG        46.4640    0.6910  -46.4410 C.3    98  LEU98       0.0019
     27  CD1       45.1860    0.0770  -47.0540 C.3    98  LEU98       0.0001
     28  CD2       47.6960    0.4300  -47.3190 C.3    98  LEU98       0.0001
     29  N         50.1350    5.6860  -48.8070 N.3   101  MET101     -0.1245
     30  CA        51.3610    4.8980  -48.9420 C.3   101  MET101      0.1570
     31  C         51.9070    4.7360  -50.3710 C.2   101  MET101      0.2261
     32  O         53.1160    4.8810  -50.5690 O.2   101  MET101     -0.2867
     33  CB        51.2260    3.5280  -48.2660 C.3   101  MET101      0.0387
     34  CG        51.5330    3.5370  -46.7770 C.3   101  MET101      0.0595
     35  SD        51.2660    1.9260  -46.0080 S.3   101  MET101     -0.1393
     36  CE        51.1790    2.4020  -44.2750 C.3   101  MET101      0.0692
     37  N         34.7720   -2.4130  -50.2410 N.3   168  TRP168     -0.1228
     38  CA        35.5660   -2.4720  -48.9840 C.3   168  TRP168      0.1722
     39  C         36.5400   -1.3160  -48.7070 C.2   168  TRP168      0.2437
     40  O         36.7750   -1.0120  -47.5380 O.2   168  TRP168     -0.2733
     41  CB        36.3350   -3.7980  -48.7970 C.3   168  TRP168      0.0563
     42  CG        35.5250   -5.0600  -48.8750 C.ar  168  TRP168      0.0003
     43  CD1       35.6040   -6.0170  -49.8420 C.ar  168  TRP168      0.0946
     44  CD2       34.5530   -5.5290  -47.9260 C.ar  168  TRP168      0.0152
     45  NE1       34.7270   -7.0400  -49.5720 N.ar  168  TRP168     -0.2442
     46  CE2       34.0640   -6.7620  -48.4050 C.ar  168  TRP168      0.0810
     47  CE3       34.0370   -5.0190  -46.7330 C.ar  168  TRP168      0.0012
     48  CZ2       33.0930   -7.4980  -47.7270 C.ar  168  TRP168      0.0191
     49  CZ3       33.0570   -5.7580  -46.0550 C.ar  168  TRP168      0.0001
     50  CH2       32.6000   -6.9760  -46.5570 C.ar  168  TRP168      0.0015
     51  N         37.1310   -0.6860  -49.7490 N.am  169  PRO169     -0.2718
     52  CA        38.2040    0.2750  -49.4270 C.3   169  PRO169      0.1535
     53  C         37.7280    1.4050  -48.5260 C.2   169  PRO169      0.2599
     54  O         36.7800    2.1160  -48.8700 O.2   169  PRO169     -0.2715
     55  CB        38.6110    0.8310  -50.7950 C.3   169  PRO169      0.0310
     56  CG        38.1560   -0.1920  -51.7800 C.3   169  PRO169      0.0237
     57  CD        36.8840   -0.7320  -51.2020 C.3   169  PRO169      0.0939
     58  N         38.3840    1.5430  -47.3750 N.am  170  SER170     -0.1950
     59  CA        38.0150    2.5200  -46.3530 C.3   170  SER170      0.1924
     60  C         38.0700    3.9320  -46.9090 C.2   170  SER170      0.2314
     61  O         38.9930    4.2590  -47.6600 O.2   170  SER170     -0.2863
     62  CB        38.9950    2.4700  -45.1730 C.3   170  SER170      0.2116
     63  OG        39.1670    1.1660  -44.6560 O.3   170  SER170     -0.2180
     64  N         50.7420   -2.6220  -48.7030 N.3   272  PHE272     -0.1241
     65  CA        50.0160   -3.6170  -47.9150 C.3   272  PHE272      0.1605
     66  C         50.8930   -4.3750  -46.9020 C.2   272  PHE272      0.2264
     67  O         50.4050   -4.7590  -45.8400 O.2   272  PHE272     -0.2867
     68  CB        49.2560   -4.5940  -48.8210 C.3   272  PHE272      0.0534
     69  CG        47.8700   -4.1360  -49.1860 C.ar  272  PHE272     -0.0203
     70  CD1       47.5380   -3.8670  -50.5090 C.ar  272  PHE272     -0.0042
     71  CD2       46.8890   -3.9750  -48.2060 C.ar  272  PHE272     -0.0042
     72  CE1       46.2530   -3.4540  -50.8510 C.ar  272  PHE272     -0.0003
     73  CE2       45.6020   -3.5550  -48.5410 C.ar  272  PHE272     -0.0003
     74  CZ        45.2850   -3.3000  -49.8610 C.ar  272  PHE272     -0.0000
     75  N         51.2220   -2.1350  -43.9830 N.3   275  SER275     -0.1217
     76  CA        49.9720   -2.1720  -43.2170 C.3   275  SER275      0.1889
     77  C         49.7920   -3.5170  -42.4990 C.2   275  SER275      0.2288
     78  O         49.1200   -3.5690  -41.4850 O.2   275  SER275     -0.2866
     79  CB        48.7560   -1.8530  -44.0880 C.3   275  SER275      0.2089
     80  OG        48.5390   -2.8870  -45.0160 O.3   275  SER275     -0.2183
     81  N         51.6190   -2.9360  -39.2640 N.3   278  LEU278     -0.1231
     82  CA        50.9280   -1.9690  -38.4040 C.3   278  LEU278      0.1693
     83  C         49.5920   -2.4490  -37.8450 C.2   278  LEU278      0.2591
     84  O         49.1540   -1.9960  -36.7870 O.2   278  LEU278     -0.2718
     85  CB        50.7130   -0.6290  -39.1290 C.3   278  LEU278      0.0284
     86  CG        51.9470    0.2450  -39.4200 C.3   278  LEU278      0.0019
     87  CD1       51.5050    1.5340  -40.0760 C.3   278  LEU278      0.0001
     88  CD2       52.7610    0.5270  -38.1500 C.3   278  LEU278      0.0001
     89  N         48.9270   -3.3370  -38.5710 N.am  279  VAL279     -0.1980
     90  CA        47.6530   -3.8880  -38.1190 C.3   279  VAL279      0.1595
     91  C         47.7940   -4.5780  -36.7510 C.2   279  VAL279      0.2287
     92  O         46.9030   -4.5000  -35.9080 O.2   279  VAL279     -0.2864
     93  CB        47.0430   -4.7790  -39.2170 C.3   279  VAL279      0.0276
     94  CG1       46.3830   -6.0080  -38.6620 C.3   279  VAL279      0.0022
     95  CG2       46.0600   -3.9730  -40.0160 C.3   279  VAL279      0.0022
     96  N         46.8870   -2.3060  -33.9080 N.3   282  MET282     -0.1245
     97  CA        45.4440   -2.1380  -33.7760 C.3   282  MET282      0.1570
     98  C         44.8380   -3.3270  -33.0390 C.2   282  MET282      0.2261
     99  O         44.0640   -3.1490  -32.0950 O.2   282  MET282     -0.2867
    100  CB        44.8100   -1.9940  -35.1590 C.3   282  MET282      0.0387
    101  CG        45.3520   -0.8100  -35.9710 C.3   282  MET282      0.0595
    102  SD        45.0160   -0.9190  -37.7450 S.3   282  MET282     -0.1393
    103  CE        43.2440   -1.0910  -37.7900 C.3   282  MET282      0.0692
    104  N         40.5070   -8.7210  -42.5420 N.3   400  PHE400     -0.1227
    105  CA        40.7840   -7.5250  -43.3310 C.3   400  PHE400      0.1736
    106  C         42.2710   -7.3300  -43.5230 C.2   400  PHE400      0.2595
    107  O         43.0660   -8.1150  -43.0020 O.2   400  PHE400     -0.2718
    108  CB        40.0790   -6.2850  -42.7400 C.3   400  PHE400      0.0547
    109  CG        40.8950   -5.4900  -41.7340 C.ar  400  PHE400     -0.0202
    110  CD1       40.6380   -4.1320  -41.5600 C.ar  400  PHE400     -0.0042
    111  CD2       41.8980   -6.0780  -40.9660 C.ar  400  PHE400     -0.0042
    112  CE1       41.3640   -3.3790  -40.6450 C.ar  400  PHE400     -0.0003
    113  CE2       42.6300   -5.3310  -40.0460 C.ar  400  PHE400     -0.0003
    114  CZ        42.3580   -3.9820  -39.8810 C.ar  400  PHE400     -0.0000
    115  N         42.6440   -6.3070  -44.2970 N.am  401  ASP401     -0.1974
    116  CA        44.0520   -6.0260  -44.6060 C.3   401  ASP401      0.1709
    117  C         44.7330   -7.2420  -45.2400 C.2   401  ASP401      0.2293
    118  O         45.9000   -7.5370  -44.9620 O.2   401  ASP401     -0.2864
    119  CB        44.7810   -5.5600  -43.3420 C.3   401  ASP401      0.1436
    120  CG        46.1460   -4.9680  -43.6270 C.2   401  ASP401      0.3671
    121  OD1       46.2880   -4.1690  -44.5720 O.co2 401  ASP401     -0.2456
    122  OD2       47.0800   -5.2820  -42.8710 O.co2 401  ASP401     -0.2456
@<TRIPOS>BOND
     1    56    57    1
     2    56    55    1
     3    57    51    1
     4    72    70   ar
     5    72    74   ar
     6    55    52    1
     7    32    31    2
     8    70    69   ar
     9    31    30    1
    10    37    38    1
    11    74    73   ar
    12    43    45   ar
    13    43    42   ar
    14    51    52    1
    15    51    39   am
    16    45    46   ar
    17    52    53    1
    18    69    68    1
    19    69    71   ar
    20    38    41    1
    21    38    39    1
    22    30    29    1
    23    30    33    1
    24    42    41    1
    25    42    44   ar
    26    54    53    2
    27    68    65    1
    28    39    40    2
    29    64    65    1
    30    24    23    2
    31    73    71   ar
    32    53    58   am
    33    46    44   ar
    34    46    48   ar
    35    33    34    1
    36    44    47   ar
    37    65    66    1
    38    48    50   ar
    39    61    60    2
    40    23    22    1
    41    58    59    1
    42    28    26    1
    43    27    26    1
    44    60    59    1
    45    66    67    2
    46    34    35    1
    47    47    49   ar
    48    50    49   ar
    49    26    25    1
    50    59    62    1
    51    22    25    1
    52    22    21    1
    53    35    36    1
    54    19    18    2
    55   117   118    2
    56   117   116    1
    57    62    63    1
    58    80    79    1
    59   116   115    1
    60   116   119    1
    61   121   120   ar
    62    18    17    1
    63   115   106   am
    64    79    76    1
    65    75    76    1
    66   120   119    1
    67   120   122   ar
    68    17    20    1
    69    17    16    1
    70   106   105    1
    71   106   107    2
    72   105   108    1
    73   105   104    1
    74    76    77    1
    75    12    11    2
    76   108   109    1
    77    77    78    2
    78    16    11   am
    79    11    10    1
    80   109   110   ar
    81   109   111   ar
    82   110   112   ar
    83   111   113   ar
    84   112   114   ar
    85    10     9    1
    86    10    13    1
    87     4     3    2
    88    87    86    1
    89   113   114   ar
    90    95    93    1
    91    15    13    1
    92    13    14    1
    93     6     8    1
    94     6     5    1
    95     3     2    1
    96    86    85    1
    97    86    88    1
    98    81    82    1
    99    93    94    1
   100    93    90    1
   101    85    82    1
   102    89    90    1
   103    89    83   am
   104    82    83    1
   105     7     5    1
   106     5     2    1
   107     2     1    1
   108    90    91    1
   109    83    84    2
   110   103   102    1
   111   102   101    1
   112    91    92    2
   113   101   100    1
   114   100    97    1
   115    96    97    1
   116    97    98    1
   117    98    99    2
