@<TRIPOS>MOLECULE
tmp/3d9kB00.pdb
 168 160 0 0 0
SMALL
GASTEIGER

@<TRIPOS>ATOM
      1  N         20.9110   -1.1010   -5.9000 N.3    20  PRO20      -0.2102
      2  CA        20.1880    0.1800   -5.9460 C.3    20  PRO20       0.1504
      3  C         20.0750    0.8940   -4.6000 C.2    20  PRO20       0.2576
      4  O         19.8030    0.2650   -3.5740 O.2    20  PRO20      -0.2718
      5  CB        18.7950   -0.2220   -6.4430 C.3    20  PRO20       0.0282
      6  CG        18.6370   -1.6370   -6.0160 C.3    20  PRO20       0.0208
      7  CD        20.0000   -2.2480   -6.1240 C.3    20  PRO20       0.0893
      8  N         20.2820    2.2070   -4.6190 N.am   21  ILE21      -0.1966
      9  CA        20.1820    3.0280   -3.4150 C.3    21  ILE21       0.1727
     10  C         18.7190    3.3280   -3.1010 C.2    21  ILE21       0.2617
     11  O         17.9210    3.5950   -4.0040 O.2    21  ILE21      -0.2715
     12  CB        21.0300    4.3240   -3.5430 C.3    21  ILE21       0.0290
     13  CG1       22.4980    3.9790   -3.8850 C.3    21  ILE21       0.0022
     14  CG2       20.9270    5.1920   -2.2780 C.3    21  ILE21       0.0023
     15  CD1       23.2330    3.1330   -2.8230 C.3    21  ILE21       0.0001
     16  N         18.3770    3.2610   -1.8170 N.am   22  SER22      -0.1936
     17  CA        17.0080    3.4580   -1.3440 C.3    22  SER22       0.2055
     18  C         16.5540    4.9170   -1.4280 C.2    22  SER22       0.2642
     19  O         17.3700    5.8340   -1.3600 O.2    22  SER22      -0.2714
     20  CB        16.8790    2.9560    0.0990 C.3    22  SER22       0.2130
     21  OG        17.5650    3.8260    0.9900 O.3    22  SER22      -0.2179
     22  N         15.2440    5.1090   -1.5930 N.am   23  LYS23      -0.1977
     23  CA        14.5860    6.4210   -1.5230 C.3    23  LYS23       0.1596
     24  C         14.9870    7.1620   -0.2440 C.2    23  LYS23       0.2287
     25  O         15.3140    8.3600   -0.2800 O.2    23  LYS23      -0.2864
     26  CB        13.0580    6.2300   -1.5790 C.3    23  LYS23       0.0298
     27  CG        12.2110    7.4110   -1.0810 C.3    23  LYS23       0.0038
     28  CD        10.7260    7.0400   -1.0100 C.3    23  LYS23       0.0206
     29  CE         9.8980    8.1010   -0.2820 C.3    23  LYS23       0.1093
     30  NZ         8.5170    7.5970    0.0840 N.3    23  LYS23      -0.1314
     31  N         18.6260    8.3690   -0.2940 N.3    26  MET26      -0.1230
     32  CA        18.6870    9.4780   -1.2460 C.3    26  MET26       0.1702
     33  C         18.1410   10.7790   -0.6620 C.2    26  MET26       0.2593
     34  O         18.7170   11.8600   -0.8710 O.2    26  MET26      -0.2718
     35  CB        17.9600    9.1130   -2.5410 C.3    26  MET26       0.0401
     36  CG        18.4200    9.9260   -3.7410 C.3    26  MET26       0.0596
     37  SD        20.2040    9.9380   -3.9780 S.3    26  MET26      -0.1393
     38  CE        20.5710    8.2780   -4.4880 C.3    26  MET26       0.0692
     39  N         17.0420   10.6530    0.0720 N.am   27  THR27      -0.1953
     40  CA        16.4030   11.7460    0.8030 C.3    27  THR27       0.1897
     41  C         17.3480   12.3910    1.8350 C.2    27  THR27       0.2313
     42  O         17.4430   13.6160    1.8920 O.2    27  THR27      -0.2863
     43  CB        15.0960   11.2430    1.4700 C.3    27  THR27       0.1794
     44  OG1       14.1530   10.8790    0.4480 O.3    27  THR27      -0.2208
     45  CG2       14.4710   12.2940    2.3430 C.3    27  THR27       0.0378
     46  N         19.9970   14.3740    0.1060 N.3    30  THR30      -0.1203
     47  CA        19.3630   15.5860   -0.4330 C.3    30  THR30       0.1994
     48  C         19.0120   16.6130    0.6620 C.2    30  THR30       0.2617
     49  O         19.2820   17.8140    0.5080 O.2    30  THR30      -0.2717
     50  CB        18.1260   15.2150   -1.2700 C.3    30  THR30       0.1784
     51  OG1       18.5140   14.2750   -2.2890 O.3    30  THR30      -0.2211
     52  CG2       17.5280   16.4500   -1.9330 C.3    30  THR30       0.0376
     53  N         18.4210   16.1370    1.7560 N.am   31  LYS31      -0.1979
     54  CA        18.1950   16.9750    2.9300 C.3    31  LYS31       0.1596
     55  C         19.4630   17.6840    3.3820 C.2    31  LYS31       0.2287
     56  O         19.4280   18.8760    3.6650 O.2    31  LYS31      -0.2864
     57  CB        17.5740   16.1710    4.0810 C.3    31  LYS31       0.0298
     58  CG        16.0590   16.0920    3.9750 C.3    31  LYS31       0.0038
     59  CD        15.4900   14.9550    4.7890 C.3    31  LYS31       0.0206
     60  CE        14.0470   14.6680    4.3550 C.3    31  LYS31       0.1093
     61  NZ        13.0380   15.5760    4.9540 N.3    31  LYS31      -0.1314
     62  N         20.6080   20.4790    0.8230 N.3    34  ILE34      -0.1245
     63  CA        19.7430   21.6780    0.9500 C.3    34  ILE34       0.1561
     64  C         20.1400   22.4950    2.1870 C.2    34  ILE34       0.2260
     65  O         20.2600   23.7230    2.1270 O.2    34  ILE34      -0.2867
     66  CB        18.2170   21.3240    1.0140 C.3    34  ILE34       0.0252
     67  CG1       17.7460   20.5510   -0.2400 C.3    34  ILE34       0.0019
     68  CG2       17.3670   22.5910    1.2340 C.3    34  ILE34       0.0019
     69  CD1       17.6640   21.3550   -1.5370 C.3    34  ILE34       0.0001
     70  N         21.8510   10.1340   -9.5980 N.3    64  TYR64      -0.1241
     71  CA        20.6090   10.2680   -8.8450 C.3    64  TYR64       0.1605
     72  C         20.6870   11.3340   -7.7470 C.2    64  TYR64       0.2264
     73  O         19.6960   11.9640   -7.4300 O.2    64  TYR64      -0.2867
     74  CB        20.1550    8.9280   -8.2490 C.3    64  TYR64       0.0534
     75  CG        19.5740    7.9510   -9.2570 C.ar   64  TYR64      -0.0201
     76  CD1       19.2080    8.3610  -10.5450 C.ar   64  TYR64      -0.0009
     77  CD2       19.3820    6.6090   -8.9120 C.ar   64  TYR64      -0.0009
     78  CE1       18.6640    7.4310  -11.4810 C.ar   64  TYR64       0.0417
     79  CE2       18.8230    5.6910   -9.8140 C.ar   64  TYR64       0.0417
     80  CZ        18.4770    6.1030  -11.0990 C.ar   64  TYR64       0.1957
     81  OH        17.9420    5.1840  -11.9810 O.3    64  TYR64      -0.2866
     82  N         20.1840   14.6100   -9.7330 N.3    67  ASP67      -0.1225
     83  CA        18.7550   14.7000  -10.0180 C.3    67  ASP67       0.1805
     84  C         17.9720   15.0440   -8.7490 C.2    67  ASP67       0.2598
     85  O         17.1140   15.9370   -8.7450 O.2    67  ASP67      -0.2718
     86  CB        18.2550   13.3820  -10.5880 C.3    67  ASP67       0.1424
     87  CG        16.8010   13.4360  -10.9620 C.2    67  ASP67       0.3668
     88  OD1       16.4670   14.2090  -11.8970 O.co2  67  ASP67      -0.2456
     89  OD2       16.0000   12.7250  -10.3180 O.co2  67  ASP67      -0.2456
     90  N         18.2760   14.3370   -7.6650 N.am   68  SER68      -0.1952
     91  CA        17.5130   14.5080   -6.4410 C.3    68  SER68       0.1924
     92  C         17.6770   15.9140   -5.8260 C.2    68  SER68       0.2314
     93  O         16.7010   16.5310   -5.4340 O.2    68  SER68      -0.2863
     94  CB        17.8680   13.4160   -5.4360 C.3    68  SER68       0.2116
     95  OG        16.9340   13.4310   -4.3790 O.3    68  SER68      -0.2180
     96  N         16.0600   18.6820   -8.2860 N.3    71  ARG71      -0.1231
     97  CA        14.6040   18.6260   -8.2100 C.3    71  ARG71       0.1694
     98  C         14.0650   19.1150   -6.8670 C.2    71  ARG71       0.2591
     99  O         13.0600   19.8160   -6.8130 O.2    71  ARG71      -0.2718
    100  CB        14.1140   17.2090   -8.5330 C.3    71  ARG71       0.0321
    101  CG        14.1980   16.8850  -10.0350 C.3    71  ARG71       0.0489
    102  CD        13.8400   15.4380  -10.3740 C.3    71  ARG71       0.2205
    103  NE        12.5560   15.0430   -9.8100 N.pl3  71  ARG71      -0.0865
    104  CZ        12.3910   14.1140   -8.8720 C.cat  71  ARG71       0.5346
    105  NH1       13.4260   13.4300   -8.3940 N.pl3  71  ARG71       0.1354
    106  NH2       11.1760   13.8630   -8.4200 N.pl3  71  ARG71       0.1354
    107  N         14.7440   18.7600   -5.7840 N.am   72  GLN72      -0.1979
    108  CA        14.3270   19.2020   -4.4580 C.3    72  GLN72       0.1601
    109  C         14.4750   20.7180   -4.2820 C.2    72  GLN72       0.2287
    110  O         13.6030   21.3690   -3.7200 O.2    72  GLN72      -0.2864
    111  CB        15.1330   18.4700   -3.3770 C.3    72  GLN72       0.0394
    112  CG        14.7060   18.7990   -1.9510 C.3    72  GLN72       0.0908
    113  CD        13.2290   18.5310   -1.7180 C.2    72  GLN72       0.2608
    114  OE1       12.7390   17.4400   -2.0010 O.2    72  GLN72      -0.2717
    115  NE2       12.5190   19.5220   -1.2080 N.am   72  GLN72      -0.0878
    116  N         11.9230   22.5170   -6.2360 N.3    75  HIS75      -0.1226
    117  CA        10.6500   22.3990   -5.5370 C.3    75  HIS75       0.1752
    118  C         10.6350   23.3190   -4.3170 C.2    75  HIS75       0.2595
    119  O          9.6420   24.0080   -4.0490 O.2    75  HIS75      -0.2718
    120  CB        10.4230   20.9500   -5.0970 C.3    75  HIS75       0.0759
    121  CG         9.1200   20.7360   -4.3980 C.ar   75  HIS75       0.0818
    122  ND1        7.9430   20.5220   -5.0760 N.ar   75  HIS75      -0.2268
    123  CD2        8.8080   20.7130   -3.0830 C.ar   75  HIS75       0.1154
    124  CE1        6.9590   20.3690   -4.2090 C.ar   75  HIS75       0.1986
    125  NE2        7.4530   20.4950   -2.9910 N.ar   75  HIS75      -0.2212
    126  N         11.7600   23.3390   -3.6070 N.am   76  GLN76      -0.1979
    127  CA        11.8650   24.0460   -2.3460 C.3    76  GLN76       0.1601
    128  C         12.1120   25.5440   -2.4750 C.2    76  GLN76       0.2287
    129  O         11.5820   26.3080   -1.6880 O.2    76  GLN76      -0.2864
    130  CB        12.9430   23.4160   -1.4740 C.3    76  GLN76       0.0394
    131  CG        12.7890   23.7390    0.0000 C.3    76  GLN76       0.0908
    132  CD        13.5990   22.8070    0.8620 C.2    76  GLN76       0.2608
    133  OE1       13.8650   21.6670    0.4800 O.2    76  GLN76      -0.2717
    134  NE2       13.9840   23.2750    2.0290 N.am   76  GLN76      -0.0878
    135  N         17.7560    7.7770  -19.3100 N.3   112  ARG112     -0.1231
    136  CA        16.4280    7.9390  -18.7240 C.3   112  ARG112      0.1694
    137  C         16.3590    9.2440  -17.9300 C.2   112  ARG112      0.2591
    138  O         15.4280   10.0240  -18.1100 O.2   112  ARG112     -0.2718
    139  CB        16.0540    6.7520  -17.8400 C.3   112  ARG112      0.0321
    140  CG        14.5780    6.6990  -17.5510 C.3   112  ARG112      0.0489
    141  CD        14.2630    5.8490  -16.3520 C.3   112  ARG112      0.2205
    142  NE        12.8220    5.8380  -16.1030 N.pl3 112  ARG112     -0.0865
    143  CZ        12.2640    5.6850  -14.9060 C.cat 112  ARG112      0.5346
    144  NH1       13.0160    5.5400  -13.8160 N.pl3 112  ARG112      0.1354
    145  NH2       10.9470    5.7050  -14.7950 N.pl3 112  ARG112      0.1354
    146  N         17.3550    9.4910  -17.0810 N.am  113  VAL113     -0.1980
    147  CA        17.4420   10.7720  -16.3510 C.3   113  VAL113      0.1595
    148  C         17.5190   11.9940  -17.2950 C.2   113  VAL113      0.2287
    149  O         16.7480   12.9390  -17.1410 O.2   113  VAL113     -0.2864
    150  CB        18.5970   10.7830  -15.3150 C.3   113  VAL113      0.0276
    151  CG1       18.8320   12.1860  -14.7730 C.3   113  VAL113      0.0022
    152  CG2       18.2830    9.8440  -14.1730 C.3   113  VAL113      0.0022
    153  N         14.1310   12.6360  -18.8260 N.3   116  LEU116     -0.1245
    154  CA        13.2980   13.2970  -17.8230 C.3   116  LEU116      0.1561
    155  C         13.6800   14.7690  -17.6150 C.2   116  LEU116      0.2260
    156  O         12.7980   15.6200  -17.5460 O.2   116  LEU116     -0.2867
    157  CB        13.3080   12.5290  -16.4990 C.3   116  LEU116      0.0270
    158  CG        12.5560   11.1910  -16.5360 C.3   116  LEU116      0.0019
    159  CD1       12.9140   10.3550  -15.3170 C.3   116  LEU116      0.0001
    160  CD2       11.0390   11.3700  -16.6460 C.3   116  LEU116      0.0001
    161  N         11.0910   17.6560  -18.3910 N.3   120  ASN120     -0.1240
    162  CA        10.6230   18.5170  -17.3090 C.3   120  ASN120      0.1653
    163  C         11.3480   19.8520  -17.2040 C.2   120  ASN120      0.2266
    164  O         11.1910   20.5680  -16.2220 O.2   120  ASN120     -0.2867
    165  CB        10.6500   17.7600  -15.9830 C.3   120  ASN120      0.1155
    166  CG         9.6980   16.5870  -15.9730 C.2   120  ASN120      0.2627
    167  OD1        8.5540   16.6890  -16.4210 O.2   120  ASN120     -0.2716
    168  ND2       10.1640   15.4610  -15.4640 N.am  120  ASN120     -0.0877
@<TRIPOS>BOND
     1   135   136    1
     2   153   154    1
     3   136   137    1
     4   136   139    1
     5   161   162    1
     6   138   137    2
     7   137   146   am
     8   139   140    1
     9   154   155    1
    10   154   157    1
    11   155   156    2
    12   140   141    1
    13   162   163    1
    14   162   165    1
    15   148   149    2
    16   148   147    1
    17   163   164    2
    18   146   147    1
    19   160   158    1
    20   158   157    1
    21   158   159    1
    22   167   166    2
    23   141   142    1
    24   147   150    1
    25   142   143    2
    26   165   166    1
    27   166   168   am
    28   150   151    1
    29   150   152    1
    30   143   145    1
    31   143   144    1
    32    81    80    1
    33    88    87   ar
    34    78    80   ar
    35    78    76   ar
    36    80    79   ar
    37    87    86    1
    38    87    89   ar
    39    86    83    1
    40    76    75   ar
    41   102   101    1
    42   102   103    1
    43   101   100    1
    44    83    82    1
    45    83    84    1
    46    79    77   ar
    47   103   104    2
    48    70    71    1
    49    75    77   ar
    50    75    74    1
    51   104   106    1
    52   104   105    1
    53    71    74    1
    54    71    72    1
    55    84    85    2
    56    84    90   am
    57   100    97    1
    58    96    97    1
    59    97    98    1
    60    72    73    2
    61    90    91    1
    62    98    99    2
    63    98   107   am
    64     5     6    1
    65     5     2    1
    66    91    92    1
    67    91    94    1
    68   116   117    1
    69     7     6    1
    70     7     1    1
    71     2     1    1
    72     2     3    1
    73    92    93    2
    74   107   108    1
    75   117   120    1
    76   117   118    1
    77    94    95    1
    78   120   121    1
    79   122   121   ar
    80   122   124   ar
    81     8     3   am
    82     8     9    1
    83     3     4    2
    84    38    37    1
    85   108   109    1
    86   108   111    1
    87   121   123   ar
    88   118   119    2
    89   118   126   am
    90   109   110    2
    91   124   125   ar
    92    11    10    2
    93    37    36    1
    94    13    12    1
    95    13    15    1
    96    36    35    1
    97   126   127    1
    98    12     9    1
    99    12    14    1
   100     9    10    1
   101   111   112    1
   102    10    16   am
   103   123   125   ar
   104    35    32    1
   105   128   127    1
   106   128   129    2
   107   127   130    1
   108    51    50    1
   109   114   113    2
   110   112   113    1
   111    52    50    1
   112    16    17    1
   113   113   115   am
   114    22    23    1
   115    22    18   am
   116    26    23    1
   117    26    27    1
   118    69    67    1
   119    23    24    1
   120   130   131    1
   121    18    19    2
   122    18    17    1
   123    17    20    1
   124    50    47    1
   125    32    33    1
   126    32    31    1
   127    27    28    1
   128    28    29    1
   129    34    33    2
   130    33    39   am
   131    47    46    1
   132    47    48    1
   133    29    30    1
   134    25    24    2
   135    67    66    1
   136   131   132    1
   137    39    40    1
   138    20    21    1
   139    44    43    1
   140   133   132    2
   141    49    48    2
   142    48    53   am
   143    40    43    1
   144    40    41    1
   145    62    63    1
   146   132   134   am
   147    63    66    1
   148    63    64    1
   149    66    68    1
   150    43    45    1
   151    53    54    1
   152    41    42    2
   153    65    64    2
   154    54    55    1
   155    54    57    1
   156    55    56    2
   157    58    57    1
   158    58    59    1
   159    60    59    1
   160    60    61    1
