@<TRIPOS>MOLECULE
tmp/3d9lA00.pdb
 177 168 0 0 0
SMALL
GASTEIGER

@<TRIPOS>ATOM
      1  N         31.9990   15.7770    8.3540 N.3    17  LYS17      -0.1245
      2  CA        31.4110   15.9290    9.6810 C.3    17  LYS17       0.1561
      3  C         31.2580   14.5310   10.2900 C.2    17  LYS17       0.2260
      4  O         30.5970   13.6740    9.6920 O.2    17  LYS17      -0.2867
      5  CB        30.0520   16.6340    9.6120 C.3    17  LYS17       0.0271
      6  CG        29.6060   17.2950   10.9170 C.3    17  LYS17       0.0035
      7  CD        30.6530   18.3020   11.3860 C.3    17  LYS17       0.0206
      8  CE        30.1020   19.2410   12.4340 C.3    17  LYS17       0.1093
      9  NZ        30.7810   20.5740   12.4090 N.3    17  LYS17      -0.1314
     10  N         29.6030   11.6610   12.5950 N.3    19  PRO19      -0.2102
     11  CA        30.3040   10.3730   12.4530 C.3    19  PRO19       0.1504
     12  C         30.8830   10.1290   11.0570 C.2    19  PRO19       0.2576
     13  O         30.2790   10.4950   10.0420 O.2    19  PRO19      -0.2718
     14  CB        29.2210    9.3210   12.7680 C.3    19  PRO19       0.0282
     15  CG        28.0500   10.0550   13.2620 C.3    19  PRO19       0.0208
     16  CD        28.1600   11.4870   12.8220 C.3    19  PRO19       0.0893
     17  N         32.0550    9.5180   11.0380 N.am   20  ILE20      -0.1966
     18  CA        32.7430    9.1150    9.8170 C.3    20  ILE20       0.1727
     19  C         32.2060    7.7660    9.3370 C.2    20  ILE20       0.2617
     20  O         31.9940    6.8600   10.1490 O.2    20  ILE20      -0.2715
     21  CB        34.2920    8.9720   10.0500 C.3    20  ILE20       0.0290
     22  CG1       34.8980   10.2430   10.6750 C.3    20  ILE20       0.0022
     23  CG2       35.0090    8.5580    8.7360 C.3    20  ILE20       0.0023
     24  CD1       34.7520   11.5300    9.8540 C.3    20  ILE20       0.0001
     25  N         32.0410    7.6350    8.0200 N.am   21  SER21      -0.1936
     26  CA        31.5010    6.4240    7.4030 C.3    21  SER21       0.2055
     27  C         32.4390    5.2330    7.5900 C.2    21  SER21       0.2642
     28  O         33.6560    5.3940    7.7230 O.2    21  SER21      -0.2714
     29  CB        31.3080    6.6450    5.9150 C.3    21  SER21       0.2130
     30  OG        32.5760    6.6000    5.2770 O.3    21  SER21      -0.2179
     31  N         31.8530    4.0440    7.5930 N.am   22  LYS22      -0.1977
     32  CA        32.5960    2.7870    7.6210 C.3    22  LYS22       0.1596
     33  C         33.5670    2.7260    6.4470 C.2    22  LYS22       0.2287
     34  O         34.7140    2.3660    6.6240 O.2    22  LYS22      -0.2864
     35  CB        31.6180    1.5910    7.5880 C.3    22  LYS22       0.0298
     36  CG        32.2810    0.2140    7.6210 C.3    22  LYS22       0.0038
     37  CD        32.9970   -0.0790    8.9650 C.3    22  LYS22       0.0206
     38  CE        33.5940   -1.4970    9.0100 C.3    22  LYS22       0.1093
     39  NZ        32.6830   -2.5760    8.4700 N.3    22  LYS22      -0.1314
     40  N         36.7560    4.8960    6.9980 N.3    25  MET25      -0.1230
     41  CA        37.6240    4.2160    7.9660 C.3    25  MET25       0.1702
     42  C         38.3250    2.9900    7.3680 C.2    25  MET25       0.2593
     43  O         39.4970    2.7530    7.6140 O.2    25  MET25      -0.2718
     44  CB        36.8470    3.8080    9.2260 C.3    25  MET25       0.0401
     45  CG        36.4050    4.9680   10.1150 C.3    25  MET25       0.0596
     46  SD        37.7500    5.8610   10.9170 S.3    25  MET25      -0.1393
     47  CE        38.8040    4.5020   11.2960 C.3    25  MET25       0.0692
     48  N         37.5910    2.2190    6.5880 N.am   26  THR26      -0.1953
     49  CA        38.1320    1.0640    5.8520 C.3    26  THR26       0.1897
     50  C         39.2130    1.5010    4.8630 C.2    26  THR26       0.2313
     51  O         40.2410    0.8360    4.7520 O.2    26  THR26      -0.2863
     52  CB        36.9900    0.3270    5.1190 C.3    26  THR26       0.1794
     53  OG1       36.0110   -0.0650    6.0890 O.3    26  THR26      -0.2208
     54  CG2       37.4860   -0.9230    4.3400 C.3    26  THR26       0.0378
     55  N         42.3110    2.4040    6.8380 N.3    29  THR29      -0.1203
     56  CA        42.8270    1.1480    7.3690 C.3    29  THR29       0.1994
     57  C         43.6070    0.3710    6.3240 C.2    29  THR29       0.2617
     58  O         44.7240   -0.0690    6.5950 O.2    29  THR29      -0.2717
     59  CB        41.6590    0.2720    7.8940 C.3    29  THR29       0.1784
     60  OG1       40.9660    0.9930    8.9240 O.3    29  THR29      -0.2211
     61  CG2       42.1550   -1.0820    8.4510 C.3    29  THR29       0.0376
     62  N         43.0020    0.2040    5.1400 N.am   30  LYS30      -0.1979
     63  CA        43.6390   -0.4320    3.9920 C.3    30  LYS30       0.1596
     64  C         44.9210    0.3070    3.6030 C.2    30  LYS30       0.2287
     65  O         45.9280   -0.3230    3.3410 O.2    30  LYS30      -0.2864
     66  CB        42.6690   -0.5380    2.8030 C.3    30  LYS30       0.0298
     67  CG        41.7080   -1.7230    2.9350 C.3    30  LYS30       0.0038
     68  CD        40.7810   -1.9110    1.7330 C.3    30  LYS30       0.0206
     69  CE        39.8080   -3.0780    2.0230 C.3    30  LYS30       0.1093
     70  NZ        38.8690   -3.3990    0.9040 N.3    30  LYS30      -0.1314
     71  N         47.3460   -0.7340    6.3890 N.3    33  ILE33      -0.1245
     72  CA        47.6760   -2.1720    6.3420 C.3    33  ILE33       0.1561
     73  C         48.4950   -2.4940    5.1300 C.2    33  ILE33       0.2260
     74  O         49.2650   -3.4370    5.1450 O.2    33  ILE33      -0.2867
     75  CB        46.4230   -3.1060    6.3450 C.3    33  ILE33       0.0252
     76  CG1       45.6290   -2.9940    7.6500 C.3    33  ILE33       0.0019
     77  CG2       46.8230   -4.5800    6.1460 C.3    33  ILE33       0.0019
     78  CD1       46.3650   -3.4330    8.8880 C.3    33  ILE33       0.0001
     79  N         39.1290    5.9630   16.5260 N.3    63  TYR63      -0.1241
     80  CA        38.5640    4.9060   15.6770 C.3    63  TYR63       0.1605
     81  C         39.5370    4.4450   14.5820 C.2    63  TYR63       0.2264
     82  O         39.4980    3.2820   14.1530 O.2    63  TYR63      -0.2867
     83  CB        37.2520    5.3690   15.0400 C.3    63  TYR63       0.0534
     84  CG        36.0810    5.4320   16.0010 C.ar   63  TYR63      -0.0201
     85  CD1       36.1330    4.7780   17.2350 C.ar   63  TYR63      -0.0009
     86  CD2       34.9010    6.1040   15.6580 C.ar   63  TYR63      -0.0009
     87  CE1       35.0760    4.8170   18.1010 C.ar   63  TYR63       0.0417
     88  CE2       33.8250    6.1390   16.5350 C.ar   63  TYR63       0.0417
     89  CZ        33.9300    5.4950   17.7590 C.ar   63  TYR63       0.1957
     90  OH        32.9060    5.5130   18.6640 O.3    63  TYR63      -0.2866
     91  N         41.7070    2.1020   16.5590 N.3    66  ASP66      -0.1225
     92  CA        40.8980    0.8720   16.7220 C.3    66  ASP66       0.1805
     93  C         40.8200    0.0420   15.4420 C.2    66  ASP66       0.2598
     94  O         41.0640   -1.1650   15.4400 O.2    66  ASP66      -0.2718
     95  CB        39.4800    1.2390   17.1770 C.3    66  ASP66       0.1424
     96  CG        38.6150    0.0550   17.4120 C.2    66  ASP66       0.3668
     97  OD1       38.8700   -0.6850   18.4040 O.co2  66  ASP66      -0.2456
     98  OD2       37.6630   -0.1490   16.6140 O.co2  66  ASP66      -0.2456
     99  N         40.4450    0.7020   14.3560 N.am   67  SER67      -0.1952
    100  CA        40.2280    0.0180   13.0860 C.3    67  SER67       0.1924
    101  C         41.4940   -0.6580   12.5780 C.2    67  SER67       0.2314
    102  O         41.4450   -1.7840   12.1240 O.2    67  SER67      -0.2863
    103  CB        39.7360    1.0020   12.0420 C.3    67  SER67       0.2116
    104  OG        39.4820    0.3090   10.8480 O.3    67  SER67      -0.2180
    105  N         42.6060   -3.5980   15.1760 N.3    70  ARG70      -0.1231
    106  CA        41.7220   -4.7680   15.0790 C.3    70  ARG70       0.1694
    107  C         41.7980   -5.4700   13.7140 C.2    70  ARG70       0.2591
    108  O         41.7000   -6.6810   13.6370 O.2    70  ARG70      -0.2718
    109  CB        40.2740   -4.3980   15.3910 C.3    70  ARG70       0.0321
    110  CG        40.0110   -4.0910   16.8940 C.3    70  ARG70       0.0489
    111  CD        38.6420   -3.4010   17.0610 C.3    70  ARG70       0.2205
    112  NE        37.5800   -4.2340   16.5410 N.pl3  70  ARG70      -0.0865
    113  CZ        36.7210   -3.9090   15.5750 C.cat  70  ARG70       0.5346
    114  NH1       36.7120   -2.7100   15.0060 N.pl3  70  ARG70       0.1354
    115  NH2       35.8420   -4.8130   15.2000 N.pl3  70  ARG70       0.1354
    116  N         41.9330   -4.7030   12.6350 N.am   71  GLN71      -0.1979
    117  CA        42.0480   -5.3070   11.3050 C.3    71  GLN71       0.1601
    118  C         43.3370   -6.1060   11.2200 C.2    71  GLN71       0.2287
    119  O         43.3440   -7.2490   10.8020 O.2    71  GLN71      -0.2864
    120  CB        42.0030   -4.2410   10.1970 C.3    71  GLN71       0.0394
    121  CG        42.1860   -4.8390    8.7700 C.3    71  GLN71       0.0908
    122  CD        41.0990   -5.8280    8.4070 C.2    71  GLN71       0.2608
    123  OE1       39.9310   -5.6260    8.7360 O.2    71  GLN71      -0.2717
    124  NE2       41.4770   -6.9140    7.7430 N.am   71  GLN71      -0.0878
    125  N         43.3310   -9.2960   13.1760 N.3    74  HIS74      -0.1226
    126  CA        42.5360  -10.2770   12.4700 C.3    74  HIS74       0.1752
    127  C         43.2660  -10.7540   11.2190 C.2    74  HIS74       0.2595
    128  O         43.2500  -11.9380   10.9110 O.2    74  HIS74      -0.2718
    129  CB        41.2030   -9.6360   12.0820 C.3    74  HIS74       0.0759
    130  CG        40.2540  -10.5710   11.4040 C.ar   74  HIS74       0.0818
    131  ND1       39.5600  -11.5450   12.0870 N.ar   74  HIS74      -0.2268
    132  CD2       39.8620  -10.6660   10.1100 C.ar   74  HIS74       0.1154
    133  CE1       38.7960  -12.2140   11.2410 C.ar   74  HIS74       0.1986
    134  NE2       38.9590  -11.7000   10.0340 N.ar   74  HIS74      -0.2212
    135  N         43.8950   -9.8310   10.4900 N.am   75  GLN75      -0.1979
    136  CA        44.5150  -10.1630    9.1920 C.3    75  GLN75       0.1601
    137  C         45.8310  -10.9510    9.3660 C.2    75  GLN75       0.2287
    138  O         46.1030  -11.9140    8.6420 O.2    75  GLN75      -0.2864
    139  CB        44.7240   -8.8730    8.3870 C.3    75  GLN75       0.0394
    140  CG        45.1710   -9.0790    6.9500 C.3    75  GLN75       0.0908
    141  CD        44.8850   -7.8750    6.0810 C.2    75  GLN75       0.2608
    142  OE1       44.0650   -7.0200    6.4230 O.2    75  GLN75      -0.2717
    143  NE2       45.5340   -7.8170    4.9340 N.am   75  GLN75      -0.0878
    144  N         34.1670    3.5700   25.9570 N.3   111  ARG111     -0.1231
    145  CA        33.5860    2.3970   25.3360 C.3   111  ARG111      0.1694
    146  C         34.6230    1.5870   24.5430 C.2   111  ARG111      0.2591
    147  O         34.6460    0.3590   24.6570 O.2   111  ARG111     -0.2718
    148  CB        32.4080    2.7810   24.4510 C.3   111  ARG111      0.0321
    149  CG        31.6740    1.5850   23.9220 C.3   111  ARG111      0.0489
    150  CD        30.5830    1.9640   22.9670 C.3   111  ARG111      0.2205
    151  NE        29.9500    0.7530   22.4590 N.pl3 111  ARG111     -0.0865
    152  CZ        29.6030    0.5550   21.1920 C.cat 111  ARG111      0.5346
    153  NH1       29.8180    1.4930   20.2820 N.pl3 111  ARG111      0.1354
    154  NH2       29.0410   -0.5910   20.8440 N.pl3 111  ARG111      0.1354
    155  N         35.4600    2.2690   23.7520 N.am  112  VAL112     -0.1980
    156  CA        36.5520    1.6230   23.0020 C.3   112  VAL112      0.1595
    157  C         37.5730    0.9680   23.9780 C.2   112  VAL112      0.2287
    158  O         37.9820   -0.1830   23.7900 O.2   112  VAL112     -0.2864
    159  CB        37.2650    2.6160   22.0270 C.3   112  VAL112      0.0276
    160  CG1       38.5140    1.9960   21.4260 C.3   112  VAL112      0.0022
    161  CG2       36.3450    3.0700   20.8840 C.3   112  VAL112      0.0022
    162  N         36.1020   -2.1990   25.2430 N.3   115  LEU115     -0.1245
    163  CA        36.1230   -3.2240   24.1870 C.3   115  LEU115      0.1561
    164  C         37.5220   -3.8040   23.9740 C.2   115  LEU115      0.2260
    165  O         37.6880   -5.0140   23.8080 O.2   115  LEU115     -0.2867
    166  CB        35.5850   -2.6420   22.8730 C.3   115  LEU115      0.0270
    167  CG        34.0600   -2.5380   22.8200 C.3   115  LEU115      0.0019
    168  CD1       33.6390   -1.6020   21.7010 C.3   115  LEU115      0.0001
    169  CD2       33.4320   -3.9350   22.6420 C.3   115  LEU115      0.0001
    170  N         38.4570   -7.6740   24.5440 N.3   119  ASN119     -0.1240
    171  CA        39.0460   -8.3840   23.4190 C.3   119  ASN119      0.1653
    172  C         40.5490   -8.5800   23.5110 C.2   119  ASN119      0.2266
    173  O         41.1710   -9.0890   22.5790 O.2   119  ASN119     -0.2867
    174  CB        38.6740   -7.6690   22.1160 C.3   119  ASN119      0.1155
    175  CG        37.2070   -7.8120   21.7940 C.2   119  ASN119      0.2627
    176  OD1       36.6800   -8.9240   21.7720 O.2   119  ASN119     -0.2716
    177  ND2       36.5300   -6.6950   21.5630 N.am  119  ASN119     -0.0877
@<TRIPOS>BOND
     1    70    69    1
     2    68    69    1
     3    68    67    1
     4    66    67    1
     5    66    63    1
     6    65    64    2
     7    64    63    1
     8    63    62    1
     9    54    52    1
    10    51    50    2
    11    50    49    1
    12   143   141   am
    13    52    49    1
    14    52    53    1
    15    73    74    2
    16    73    72    1
    17    62    57   am
    18    30    29    1
    19    49    48    1
    20    29    26    1
    21   141   142    2
    22   141   140    1
    23    77    75    1
    24    57    58    2
    25    57    56    1
    26    72    75    1
    27    72    71    1
    28    75    76    1
    29    33    34    2
    30    33    32    1
    31    48    42   am
    32    55    56    1
    33   140   139    1
    34    40    41    1
    35    42    43    2
    36    42    41    1
    37    56    59    1
    38    26    27    1
    39    26    25    1
    40    35    36    1
    41    35    32    1
    42    27    31   am
    43    27    28    2
    44    31    32    1
    45    36    37    1
    46    76    78    1
    47   124   122   am
    48    59    61    1
    49    59    60    1
    50    41    44    1
    51    25    19   am
    52     1     2    1
    53   139   136    1
    54   122   123    2
    55   122   121    1
    56    39    38    1
    57   138   137    2
    58    23    21    1
    59   121   120    1
    60    37    38    1
    61   136   137    1
    62   136   135    1
    63    44    45    1
    64    19    18    1
    65    19    20    2
    66     5     2    1
    67     5     6    1
    68     2     3    1
    69     4     3    2
    70    18    21    1
    71    18    17    1
    72    24    22    1
    73   134   132   ar
    74   134   133   ar
    75    13    12    2
    76    21    22    1
    77   132   130   ar
    78    45    46    1
    79   120   117    1
    80   135   127   am
    81   119   118    2
    82   104   103    1
    83   128   127    2
    84    46    47    1
    85     6     7    1
    86    17    12   am
    87    12    11    1
    88   127   126    1
    89   118   117    1
    90   133   131   ar
    91   117   116    1
    92     7     8    1
    93   130   129    1
    94   130   131   ar
    95   103   100    1
    96   129   126    1
    97   102   101    2
    98     9     8    1
    99    11    10    1
   100    11    14    1
   101   126   125    1
   102   101   100    1
   103    10    16    1
   104   116   107   am
   105    14    15    1
   106    16    15    1
   107   100    99    1
   108   108   107    2
   109   107   106    1
   110    82    81    2
   111    99    93   am
   112    81    80    1
   113   114   113    1
   114    83    80    1
   115    83    84    1
   116   106   105    1
   117   106   109    1
   118   115   113    1
   119   109   110    1
   120    94    93    2
   121    93    92    1
   122   113   112    2
   123    86    84   ar
   124    86    88   ar
   125    80    79    1
   126    84    85   ar
   127    88    89   ar
   128   112   111    1
   129    91    92    1
   130    98    96   ar
   131    92    95    1
   132   110   111    1
   133    95    96    1
   134    85    87   ar
   135    96    97   ar
   136    89    87   ar
   137    89    90    1
   138   153   152    1
   139   154   152    1
   140   161   159    1
   141   152   151    2
   142   160   159    1
   143   177   175   am
   144   168   167    1
   145   176   175    2
   146   175   174    1
   147   159   156    1
   148   174   171    1
   149   151   150    1
   150   173   172    2
   151   169   167    1
   152   167   166    1
   153   166   163    1
   154   150   149    1
   155   156   155    1
   156   156   157    1
   157   171   172    1
   158   171   170    1
   159   155   146   am
   160   158   157    2
   161   165   164    2
   162   149   148    1
   163   164   163    1
   164   163   162    1
   165   148   145    1
   166   146   147    2
   167   146   145    1
   168   145   144    1
