@<TRIPOS>MOLECULE
tmp/3d9mA00.pdb
 117 111 0 0 0
SMALL
GASTEIGER

@<TRIPOS>ATOM
      1  N         30.5650   10.5070   12.7790 N.3    19  PRO19      -0.2102
      2  CA        31.3750    9.2880   12.6480 C.3    19  PRO19       0.1504
      3  C         31.8840    9.0560   11.2270 C.2    19  PRO19       0.2576
      4  O         31.1840    9.3800   10.2530 O.2    19  PRO19      -0.2718
      5  CB        30.4010    8.1740   13.0490 C.3    19  PRO19       0.0282
      6  CG        29.0840    8.7060   12.8000 C.3    19  PRO19       0.0208
      7  CD        29.1570   10.1910   13.0740 C.3    19  PRO19       0.0893
      8  N         33.0970    8.5130   11.1390 N.am   20  ILE20      -0.1966
      9  CA        33.7440    8.1990    9.8680 C.3    20  ILE20       0.1727
     10  C         33.1350    6.9310    9.2510 C.2    20  ILE20       0.2617
     11  O         32.8550    5.9720    9.9620 O.2    20  ILE20      -0.2715
     12  CB        35.2710    8.0770   10.0460 C.3    20  ILE20       0.0290
     13  CG1       35.8630    9.3750   10.6530 C.3    20  ILE20       0.0022
     14  CG2       35.9760    7.6700    8.7370 C.3    20  ILE20       0.0023
     15  CD1       35.6110   10.6300    9.8280 C.3    20  ILE20       0.0001
     16  N         32.9310    6.9550    7.9340 N.am   21  SER21      -0.1936
     17  CA        32.3940    5.8040    7.1900 C.3    21  SER21       0.2055
     18  C         33.2940    4.5700    7.3060 C.2    21  SER21       0.2642
     19  O         34.5110    4.6770    7.4860 O.2    21  SER21      -0.2714
     20  CB        32.1810    6.1450    5.7160 C.3    21  SER21       0.2130
     21  OG        33.3980    6.1920    4.9970 O.3    21  SER21      -0.2179
     22  N         32.6720    3.4000    7.1980 N.am   22  LYS22      -0.1977
     23  CA        33.4040    2.1290    7.2120 C.3    22  LYS22       0.1596
     24  C         34.3960    2.0980    6.0550 C.2    22  LYS22       0.2287
     25  O         35.5500    1.7110    6.2280 O.2    22  LYS22      -0.2864
     26  CB        32.4200    0.9570    7.1070 C.3    22  LYS22       0.0298
     27  CG        31.5470    0.7570    8.3590 C.3    22  LYS22       0.0038
     28  CD        30.4130   -0.2370    8.1190 C.3    22  LYS22       0.0206
     29  CE        29.6140   -0.4720    9.4060 C.3    22  LYS22       0.1093
     30  NZ        28.7140   -1.6590    9.2830 N.3    22  LYS22      -0.1314
     31  N         37.4850    4.1760    6.7180 N.3    25  MET25      -0.1230
     32  CA        38.3200    3.4840    7.7010 C.3    25  MET25       0.1702
     33  C         39.0380    2.3000    7.0570 C.2    25  MET25       0.2593
     34  O         40.2190    2.0820    7.3190 O.2    25  MET25      -0.2718
     35  CB        37.5000    3.0310    8.9130 C.3    25  MET25       0.0401
     36  CG        38.3460    2.7020   10.1410 C.3    25  MET25       0.0596
     37  SD        39.3950    4.0600   10.7400 S.3    25  MET25      -0.1393
     38  CE        38.1930    5.1380   11.5020 C.3    25  MET25       0.0692
     39  N         38.3250    1.5700    6.2060 N.am   26  THR26      -0.1953
     40  CA        38.9010    0.4420    5.4630 C.3    26  THR26       0.1897
     41  C         40.0440    0.9130    4.5620 C.2    26  THR26       0.2313
     42  O         41.0970    0.2870    4.5410 O.2    26  THR26      -0.2863
     43  CB        37.8320   -0.3210    4.6720 C.3    26  THR26       0.1794
     44  OG1       36.8920   -0.8910    5.5880 O.3    26  THR26      -0.2208
     45  CG2       38.4510   -1.4320    3.7990 C.3    26  THR26       0.0378
     46  N         40.0040    4.9840   16.4890 N.3    63  TYR63      -0.1241
     47  CA        39.4540    3.9410   15.6270 C.3    63  TYR63       0.1605
     48  C         40.4480    3.5180   14.5420 C.2    63  TYR63       0.2264
     49  O         40.4310    2.3730   14.0990 O.2    63  TYR63      -0.2867
     50  CB        38.1410    4.3930   14.9990 C.3    63  TYR63       0.0534
     51  CG        36.9830    4.4850   15.9590 C.ar   63  TYR63      -0.0201
     52  CD1       37.0280    3.9040   17.2360 C.ar   63  TYR63      -0.0009
     53  CD2       35.8090    5.1150   15.5750 C.ar   63  TYR63      -0.0009
     54  CE1       35.9370    3.9970   18.1060 C.ar   63  TYR63       0.0417
     55  CE2       34.7250    5.1910   16.4160 C.ar   63  TYR63       0.0417
     56  CZ        34.7810    4.6360   17.6740 C.ar   63  TYR63       0.1957
     57  OH        33.6800    4.7450   18.4870 O.3    63  TYR63      -0.2866
     58  N         42.7540    1.2080   16.3580 N.3    66  ASP66      -0.1225
     59  CA        41.9990   -0.0210   16.5780 C.3    66  ASP66       0.1805
     60  C         41.8790   -0.8430   15.2940 C.2    66  ASP66       0.2598
     61  O         42.1160   -2.0580   15.2980 O.2    66  ASP66      -0.2718
     62  CB        40.5900    0.3190   17.1170 C.3    66  ASP66       0.1424
     63  CG        39.7500   -0.9200   17.3560 C.2    66  ASP66       0.3668
     64  OD1       40.1640   -1.7510   18.1990 O.co2  66  ASP66      -0.2456
     65  OD2       38.6870   -1.0610   16.7060 O.co2  66  ASP66      -0.2456
     66  N         41.5040   -0.1850   14.1910 N.am   67  SER67      -0.1952
     67  CA        41.3110   -0.9050   12.9290 C.3    67  SER67       0.1924
     68  C         42.6250   -1.5290   12.4380 C.2    67  SER67       0.2314
     69  O         42.6350   -2.6770   11.9790 O.2    67  SER67      -0.2863
     70  CB        40.6970    0.0170   11.8770 C.3    67  SER67       0.2116
     71  OG        40.4060   -0.6670   10.6620 O.3    67  SER67      -0.2180
     72  N         43.7780   -4.4620   14.8970 N.3    70  ARG70      -0.1245
     73  CA        42.9330   -5.6300   14.6870 C.3    70  ARG70       0.1563
     74  C         43.1180   -6.3010   13.3250 C.2    70  ARG70       0.2260
     75  O         43.2330   -7.5220   13.2630 O.2    70  ARG70      -0.2867
     76  CB        41.4680   -5.3090   14.9930 C.3    70  ARG70       0.0307
     77  CG        41.2860   -4.7410   16.4020 C.3    70  ARG70       0.0489
     78  CD        41.3710   -5.7800   17.5220 C.3    70  ARG70       0.2205
     79  NE        40.1340   -6.5510   17.6140 N.pl3  70  ARG70      -0.0865
     80  CZ        40.0170   -7.7420   18.1880 C.cat  70  ARG70       0.5346
     81  NH1       41.0740   -8.3380   18.7240 N.pl3  70  ARG70       0.1354
     82  NH2       38.8390   -8.3470   18.2060 N.pl3  70  ARG70       0.1354
     83  N         33.2600    6.3600   24.3840 N.3   108  LYS108     -0.1245
     84  CA        33.6430    5.6510   23.1680 C.3   108  LYS108      0.1561
     85  C         35.0710    5.1100   23.3130 C.2   108  LYS108      0.2260
     86  O         35.3760    4.0220   22.8300 O.2   108  LYS108     -0.2867
     87  CB        33.5300    6.5660   21.9460 C.3   108  LYS108      0.0271
     88  CG        32.1290    7.1860   21.7310 C.3   108  LYS108      0.0035
     89  CD        32.0880    7.9640   20.4170 C.3   108  LYS108      0.0206
     90  CE        30.7060    8.5880   20.1590 C.3   108  LYS108      0.1093
     91  NZ        30.3430    9.6640   21.1310 N.3   108  LYS108     -0.1314
     92  N         35.0770    2.0190   25.7260 N.3   111  ARG111     -0.1231
     93  CA        34.5550    0.9080   24.9540 C.3   111  ARG111      0.1694
     94  C         35.6970    0.1920   24.2160 C.2   111  ARG111      0.2591
     95  O         35.8230   -1.0420   24.2860 O.2   111  ARG111     -0.2718
     96  CB        33.4960    1.4230   23.9690 C.3   111  ARG111      0.0321
     97  CG        32.4650    0.3920   23.5550 C.3   111  ARG111      0.0489
     98  CD        31.2970    1.0050   22.7620 C.3   111  ARG111      0.2205
     99  NE        30.5570    2.0270   23.5080 N.pl3 111  ARG111     -0.0865
    100  CZ        30.4500    3.3030   23.1380 C.cat 111  ARG111      0.5346
    101  NH1       31.0300    3.7320   22.0200 N.pl3 111  ARG111      0.1354
    102  NH2       29.7560    4.1540   23.8840 N.pl3 111  ARG111      0.1354
    103  N         36.5080    0.9610   23.5010 N.am  112  VAL112     -0.1980
    104  CA        37.6500    0.4010   22.7800 C.3   112  VAL112      0.1595
    105  C         38.5940   -0.3000   23.7590 C.2   112  VAL112      0.2287
    106  O         39.0340   -1.4200   23.4920 O.2   112  VAL112     -0.2864
    107  CB        38.4000    1.4720   21.9400 C.3   112  VAL112      0.0276
    108  CG1       39.7130    0.9270   21.3840 C.3   112  VAL112      0.0022
    109  CG2       37.5130    1.9580   20.7640 C.3   112  VAL112      0.0022
    110  N         37.3330   -3.6180   24.9010 N.3   115  LEU115     -0.1245
    111  CA        37.4360   -4.6290   23.8580 C.3   115  LEU115      0.1561
    112  C         38.8780   -5.0900   23.6920 C.2   115  LEU115      0.2260
    113  O         39.1360   -6.2780   23.4790 O.2   115  LEU115     -0.2867
    114  CB        36.8630   -4.1100   22.5430 C.3   115  LEU115      0.0270
    115  CG        35.3240   -4.0130   22.5790 C.3   115  LEU115      0.0019
    116  CD1       34.8010   -3.2620   21.3650 C.3   115  LEU115      0.0001
    117  CD2       34.6420   -5.3840   22.7030 C.3   115  LEU115      0.0001
@<TRIPOS>BOND
     1    45    43    1
     2    42    41    2
     3    41    40    1
     4    43    40    1
     5    43    44    1
     6    21    20    1
     7    40    39    1
     8    20    17    1
     9    24    25    2
    10    24    23    1
    11    39    33   am
    12    31    32    1
    13    33    34    2
    14    33    32    1
    15    26    23    1
    16    26    27    1
    17    17    18    1
    18    17    16    1
    19    22    23    1
    20    22    18   am
    21    18    19    2
    22    32    35    1
    23    16    10   am
    24    28    27    1
    25    28    29    1
    26    14    12    1
    27    35    36    1
    28    10     9    1
    29    10    11    2
    30    30    29    1
    31    15    13    1
    32     9    12    1
    33     9     8    1
    34    12    13    1
    35    36    37    1
    36     4     3    2
    37    71    70    1
    38    37    38    1
    39     8     3   am
    40     3     2    1
    41    70    67    1
    42    69    68    2
    43    68    67    1
    44     2     1    1
    45     2     5    1
    46     1     7    1
    47     6     5    1
    48     6     7    1
    49    67    66    1
    50    75    74    2
    51    74    73    1
    52    49    48    2
    53    66    60   am
    54    48    47    1
    55    73    72    1
    56    73    76    1
    57    76    77    1
    58    50    47    1
    59    50    51    1
    60    60    61    2
    61    60    59    1
    62    53    51   ar
    63    53    55   ar
    64    47    46    1
    65    51    52   ar
    66    58    59    1
    67    77    78    1
    68    55    56   ar
    69    59    62    1
    70    65    63   ar
    71    62    63    1
    72    52    54   ar
    73    63    64   ar
    74    78    79    1
    75    79    80    2
    76    56    54   ar
    77    56    57    1
    78    80    82    1
    79    80    81    1
    80    90    89    1
    81    90    91    1
    82    89    88    1
    83   109   107    1
    84   116   115    1
    85   108   107    1
    86    88    87    1
    87   107   104    1
    88    87    84    1
    89   101   100    1
    90   114   115    1
    91   114   111    1
    92   115   117    1
    93    98    99    1
    94    98    97    1
    95   104   103    1
    96   104   105    1
    97    86    85    2
    98   100    99    2
    99   100   102    1
   100    84    85    1
   101    84    83    1
   102   113   112    2
   103   106   105    2
   104   103    94   am
   105    97    96    1
   106   112   111    1
   107   111   110    1
   108    96    93    1
   109    94    95    2
   110    94    93    1
   111    93    92    1
