@<TRIPOS>MOLECULE
tmp/3d9mB00.pdb
 125 120 0 0 0
SMALL
GASTEIGER

@<TRIPOS>ATOM
      1  N         21.4750   -0.5900   -6.1310 N.3    20  PRO20      -0.2102
      2  CA        20.8580    0.7410   -6.1550 C.3    20  PRO20       0.1504
      3  C         20.7190    1.3750   -4.7760 C.2    20  PRO20       0.2576
      4  O         20.3100    0.7180   -3.8130 O.2    20  PRO20      -0.2718
      5  CB        19.4600    0.4730   -6.7470 C.3    20  PRO20       0.0282
      6  CG        19.1920   -0.9280   -6.4730 C.3    20  PRO20       0.0208
      7  CD        20.5120   -1.6440   -6.5080 C.3    20  PRO20       0.0893
      8  N         21.0420    2.6580   -4.7140 N.am   21  ILE21      -0.1966
      9  CA        20.9470    3.4180   -3.4820 C.3    21  ILE21       0.1727
     10  C         19.4820    3.6550   -3.0900 C.2    21  ILE21       0.2617
     11  O         18.6550    4.0100   -3.9400 O.2    21  ILE21      -0.2715
     12  CB        21.7420    4.7400   -3.6140 C.3    21  ILE21       0.0290
     13  CG1       23.2080    4.4390   -4.0200 C.3    21  ILE21       0.0022
     14  CG2       21.6490    5.5640   -2.3360 C.3    21  ILE21       0.0023
     15  CD1       24.0010    3.5680   -2.9990 C.3    21  ILE21       0.0001
     16  N         19.1840    3.4820   -1.8050 N.am   22  SER22      -0.1936
     17  CA        17.8320    3.6720   -1.2760 C.3    22  SER22       0.2055
     18  C         17.3550    5.1350   -1.3760 C.2    22  SER22       0.2643
     19  O         18.1570    6.0670   -1.4620 O.2    22  SER22      -0.2714
     20  CB        17.7460    3.1960    0.1710 C.3    22  SER22       0.2130
     21  OG        18.3970    4.1050    1.0400 O.3    22  SER22      -0.2179
     22  N         16.0330    5.3170   -1.3670 N.am   23  LYS23      -0.1963
     23  CA        15.4290    6.6540   -1.3300 C.3    23  LYS23       0.1728
     24  C         15.8170    7.3880   -0.0460 C.2    23  LYS23       0.2616
     25  O         16.1080    8.5920   -0.0730 O.2    23  LYS23      -0.2715
     26  CB        13.8980    6.5340   -1.3900 C.3    23  LYS23       0.0311
     27  CG        13.3540    6.1260   -2.7480 C.3    23  LYS23       0.0038
     28  CD        11.8470    5.9240   -2.6670 C.3    23  LYS23       0.0206
     29  CE        11.3610    4.9050   -3.6820 C.3    23  LYS23       0.1093
     30  NZ         9.9030    4.6570   -3.5340 N.3    23  LYS23      -0.1314
     31  N         15.8230    6.6510    1.0660 N.am   24  ALA24      -0.1977
     32  CA        16.1870    7.1940    2.3820 C.3    24  ALA24       0.1597
     33  C         17.6000    7.7980    2.3470 C.2    24  ALA24       0.2287
     34  O         17.8080    8.9150    2.8170 O.2    24  ALA24      -0.2864
     35  CB        16.0810    6.1230    3.4560 C.3    24  ALA24       0.0319
     36  N         19.3700    8.6980   -0.3480 N.3    26  MET26      -0.1245
     37  CA        19.4190    9.8240   -1.2620 C.3    26  MET26       0.1570
     38  C         18.8300   11.0820   -0.6190 C.2    26  MET26       0.2261
     39  O         19.3610   12.1840   -0.8000 O.2    26  MET26      -0.2867
     40  CB        18.7090    9.4840   -2.5600 C.3    26  MET26       0.0387
     41  CG        19.1310   10.3770   -3.6980 C.3    26  MET26       0.0595
     42  SD        20.9130   10.3620   -4.0700 S.3    26  MET26      -0.1393
     43  CE        21.2260    8.7330   -4.6670 C.3    26  MET26       0.0692
     44  N         22.5430   10.4650   -9.7510 N.3    64  TYR64      -0.1241
     45  CA        21.3060   10.5790   -8.9890 C.3    64  TYR64       0.1605
     46  C         21.4170   11.6480   -7.8940 C.2    64  TYR64       0.2264
     47  O         20.4350   12.3170   -7.5900 O.2    64  TYR64      -0.2867
     48  CB        20.9110    9.2220   -8.4060 C.3    64  TYR64       0.0534
     49  CG        20.3760    8.2340   -9.4220 C.ar   64  TYR64      -0.0201
     50  CD1       20.0870    8.6270  -10.7300 C.ar   64  TYR64      -0.0009
     51  CD2       20.1460    6.8970   -9.0680 C.ar   64  TYR64      -0.0009
     52  CE1       19.5840    7.7060  -11.6680 C.ar   64  TYR64       0.0417
     53  CE2       19.6280    5.9870   -9.9890 C.ar   64  TYR64       0.0417
     54  CZ        19.3670    6.3920  -11.2830 C.ar   64  TYR64       0.1957
     55  OH        18.8670    5.4860  -12.1990 O.3    64  TYR64      -0.2866
     56  N         20.8690   14.9010   -9.6750 N.3    67  ASP67      -0.1225
     57  CA        19.4360   14.9500   -9.9470 C.3    67  ASP67       0.1805
     58  C         18.6240   15.3290   -8.7160 C.2    67  ASP67       0.2598
     59  O         17.7750   16.2500   -8.7590 O.2    67  ASP67      -0.2718
     60  CB        18.9530   13.5950  -10.5020 C.3    67  ASP67       0.1424
     61  CG        17.4730   13.6180  -10.8590 C.2    67  ASP67       0.3668
     62  OD1       17.1280   14.3350  -11.8290 O.co2  67  ASP67      -0.2456
     63  OD2       16.6560   12.9790  -10.1550 O.co2  67  ASP67      -0.2456
     64  N         18.8750   14.6300   -7.6110 N.am   68  SER68      -0.1952
     65  CA        18.0870   14.8320   -6.3930 C.3    68  SER68       0.1924
     66  C         18.3110   16.2380   -5.8080 C.2    68  SER68       0.2314
     67  O         17.3410   16.8970   -5.4150 O.2    68  SER68      -0.2863
     68  CB        18.4280   13.7640   -5.3550 C.3    68  SER68       0.2116
     69  OG        17.5740   13.8480   -4.2200 O.3    68  SER68      -0.2180
     70  N         16.7160   18.9040   -8.2400 N.3    71  ARG71      -0.1231
     71  CA        15.2550   18.8960   -8.2220 C.3    71  ARG71       0.1694
     72  C         14.7240   19.3710   -6.8700 C.2    71  ARG71       0.2591
     73  O         13.7330   20.1140   -6.8150 O.2    71  ARG71      -0.2718
     74  CB        14.7140   17.5180   -8.6300 C.3    71  ARG71       0.0321
     75  CG        15.0000   17.2090  -10.1080 C.3    71  ARG71       0.0489
     76  CD        14.2080   16.0130  -10.6540 C.3    71  ARG71       0.2205
     77  NE        14.3890   14.7930   -9.8650 N.pl3  71  ARG71      -0.0865
     78  CZ        13.4080   14.1370   -9.2540 C.cat  71  ARG71       0.5346
     79  NH1       12.1550   14.5760   -9.3130 N.pl3  71  ARG71       0.1354
     80  NH2       13.6790   13.0400   -8.5670 N.pl3  71  ARG71       0.1354
     81  N         15.4060   19.0030   -5.7850 N.am   72  GLN72      -0.1979
     82  CA        14.9580   19.4560   -4.4630 C.3    72  GLN72       0.1601
     83  C         15.1470   20.9560   -4.3160 C.2    72  GLN72       0.2287
     84  O         14.2830   21.6310   -3.7570 O.2    72  GLN72      -0.2864
     85  CB        15.6700   18.7020   -3.3320 C.3    72  GLN72       0.0394
     86  CG        15.2860   19.1640   -1.9140 C.3    72  GLN72       0.0908
     87  CD        13.8130   18.9740   -1.6270 C.2    72  GLN72       0.2608
     88  OE1       13.1960   18.0180   -2.1010 O.2    72  GLN72      -0.2717
     89  NE2       13.2330   19.8880   -0.8510 N.am   72  GLN72      -0.0878
     90  N         12.5140   22.8750   -6.1940 N.3    75  HIS75      -0.1241
     91  CA        11.2620   22.7880   -5.4470 C.3    75  HIS75       0.1621
     92  C         11.2300   23.7250   -4.2440 C.2    75  HIS75       0.2264
     93  O         10.2410   24.4390   -4.0290 O.2    75  HIS75      -0.2867
     94  CB        11.0570   21.3500   -4.9670 C.3    75  HIS75       0.0745
     95  CG         9.7700   21.1320   -4.2440 C.ar   75  HIS75       0.0817
     96  ND1        8.5490   21.1000   -4.8840 N.ar   75  HIS75      -0.2268
     97  CD2        9.5120   20.9490   -2.9280 C.ar   75  HIS75       0.1154
     98  CE1        7.5940   20.9040   -3.9930 C.ar   75  HIS75       0.1986
     99  NE2        8.1520   20.8080   -2.8000 N.ar   75  HIS75      -0.2212
    100  N         18.4550    8.0810  -19.5280 N.3   112  ARG112     -0.1231
    101  CA        17.1330    8.2490  -18.9170 C.3   112  ARG112      0.1694
    102  C         17.0560    9.5640  -18.1330 C.2   112  ARG112      0.2591
    103  O         16.0780   10.3240  -18.2920 O.2   112  ARG112     -0.2718
    104  CB        16.7930    7.0720  -18.0070 C.3   112  ARG112      0.0321
    105  CG        15.3490    7.1270  -17.5410 C.3   112  ARG112      0.0489
    106  CD        15.0390    5.9960  -16.6110 C.3   112  ARG112      0.2205
    107  NE        13.5950    5.7980  -16.4680 N.pl3 112  ARG112     -0.0865
    108  CZ        13.0150    5.2670  -15.3930 C.cat 112  ARG112      0.5346
    109  NH1       13.7490    4.9060  -14.3420 N.pl3 112  ARG112      0.1354
    110  NH2       11.6950    5.1180  -15.3580 N.pl3 112  ARG112      0.1354
    111  N         18.0550    9.8170  -17.2830 N.am  113  VAL113     -0.1980
    112  CA        18.1300   11.0730  -16.5130 C.3   113  VAL113      0.1595
    113  C         18.2090   12.2890  -17.4480 C.2   113  VAL113      0.2287
    114  O         17.4760   13.2660  -17.2700 O.2   113  VAL113     -0.2864
    115  CB        19.3080   11.0600  -15.5190 C.3   113  VAL113      0.0276
    116  CG1       19.4830   12.4250  -14.8530 C.3   113  VAL113      0.0022
    117  CG2       19.0830    9.9720  -14.4550 C.3   113  VAL113      0.0022
    118  N         14.8510   13.0640  -18.9750 N.3   116  LEU116     -0.1245
    119  CA        13.9720   13.6730  -17.9700 C.3   116  LEU116      0.1561
    120  C         14.3530   15.1400  -17.7270 C.2   116  LEU116      0.2260
    121  O         13.4740   16.0060  -17.6260 O.2   116  LEU116     -0.2867
    122  CB        14.0270   12.8790  -16.6550 C.3   116  LEU116      0.0270
    123  CG        13.1830   11.5830  -16.6770 C.3   116  LEU116      0.0019
    124  CD1       13.5920   10.7100  -15.4960 C.3   116  LEU116      0.0001
    125  CD2       11.6940   11.8480  -16.6450 C.3   116  LEU116      0.0001
@<TRIPOS>BOND
     1   100   101    1
     2   118   119    1
     3   101   102    1
     4   101   104    1
     5   103   102    2
     6   102   111   am
     7   104   105    1
     8   119   120    1
     9   119   122    1
    10   120   121    2
    11   105   106    1
    12   113   114    2
    13   113   112    1
    14   111   112    1
    15   123   122    1
    16   123   125    1
    17   123   124    1
    18   106   107    1
    19   112   115    1
    20   107   108    2
    21   115   116    1
    22   115   117    1
    23   108   110    1
    24   108   109    1
    25    55    54    1
    26    62    61   ar
    27    52    54   ar
    28    52    50   ar
    29    54    53   ar
    30    61    60    1
    31    61    63   ar
    32    50    49   ar
    33    76    75    1
    34    76    77    1
    35    60    57    1
    36    75    74    1
    37    53    51   ar
    38    57    56    1
    39    57    58    1
    40    77    78    2
    41    44    45    1
    42    49    51   ar
    43    49    48    1
    44    79    78    1
    45    78    80    1
    46    45    48    1
    47    45    46    1
    48    59    58    2
    49    58    64   am
    50    74    71    1
    51    70    71    1
    52    71    72    1
    53    46    47    2
    54    64    65    1
    55    72    73    2
    56    72    81   am
    57     5     6    1
    58     5     2    1
    59     7     6    1
    60     7     1    1
    61    65    66    1
    62    65    68    1
    63    90    91    1
    64     2     1    1
    65     2     3    1
    66    66    67    2
    67    81    82    1
    68    91    94    1
    69    91    92    1
    70    68    69    1
    71    94    95    1
    72    96    95   ar
    73    96    98   ar
    74     3     8   am
    75     3     4    2
    76     8     9    1
    77    43    42    1
    78    82    83    1
    79    82    85    1
    80    83    84    2
    81    92    93    2
    82    95    97   ar
    83    42    41    1
    84    13    12    1
    85    13    15    1
    86    98    99   ar
    87    11    10    2
    88    41    40    1
    89    29    30    1
    90    29    28    1
    91    12     9    1
    92    12    14    1
    93     9    10    1
    94    85    86    1
    95    10    16   am
    96    97    99   ar
    97    27    28    1
    98    27    26    1
    99    40    37    1
   100    88    87    2
   101    86    87    1
   102    16    17    1
   103    87    89   am
   104    19    18    2
   105    26    23    1
   106    18    22   am
   107    18    17    1
   108    22    23    1
   109    23    24    1
   110    17    20    1
   111    37    38    1
   112    37    36    1
   113    39    38    2
   114    25    24    2
   115    24    31   am
   116    20    21    1
   117    31    32    1
   118    33    32    1
   119    33    34    2
   120    32    35    1
