@<TRIPOS>MOLECULE
tmp/3d9nB00.pdb
 115 110 0 0 0
SMALL
GASTEIGER

@<TRIPOS>ATOM
      1  N         21.4130   -0.6340   -5.9700 N.3    19  PRO19      -0.2102
      2  CA        20.8010    0.6990   -5.9770 C.3    19  PRO19       0.1504
      3  C         20.6920    1.3380   -4.5980 C.2    19  PRO19       0.2576
      4  O         20.3330    0.6760   -3.6240 O.2    19  PRO19      -0.2718
      5  CB        19.3880    0.4220   -6.5260 C.3    19  PRO19       0.0282
      6  CG        19.1170   -0.9690   -6.1870 C.3    19  PRO19       0.0208
      7  CD        20.4350   -1.6810   -6.3340 C.3    19  PRO19       0.0893
      8  N         20.9810    2.6360   -4.5490 N.am   20  ILE20      -0.1966
      9  CA        20.8580    3.4270   -3.3380 C.3    20  ILE20       0.1727
     10  C         19.3880    3.7330   -3.0280 C.2    20  ILE20       0.2617
     11  O         18.6060    4.0270   -3.9360 O.2    20  ILE20      -0.2715
     12  CB        21.7120    4.7160   -3.4530 C.3    20  ILE20       0.0290
     13  CG1       23.1800    4.3450   -3.8110 C.3    20  ILE20       0.0022
     14  CG2       21.6110    5.5490   -2.1940 C.3    20  ILE20       0.0023
     15  CD1       23.9450    3.4780   -2.7720 C.3    20  ILE20       0.0001
     16  N         19.0280    3.6180   -1.7510 N.am   21  SER21      -0.1936
     17  CA        17.6610    3.8580   -1.2680 C.3    21  SER21       0.2055
     18  C         17.2510    5.3350   -1.3640 C.2    21  SER21       0.2643
     19  O         18.0900    6.2320   -1.3380 O.2    21  SER21      -0.2714
     20  CB        17.5170    3.3900    0.1810 C.3    21  SER21       0.2130
     21  OG        18.1680    4.2850    1.0720 O.3    21  SER21      -0.2179
     22  N         15.9450    5.5620   -1.4610 N.am   22  LYS22      -0.1963
     23  CA        15.3810    6.9080   -1.4050 C.3    22  LYS22       0.1728
     24  C         15.7610    7.5770   -0.0840 C.2    22  LYS22       0.2616
     25  O         16.0720    8.7670   -0.0550 O.2    22  LYS22      -0.2715
     26  CB        13.8470    6.8350   -1.5020 C.3    22  LYS22       0.0311
     27  CG        13.3210    6.5530   -2.8990 C.3    22  LYS22       0.0038
     28  CD        11.8110    6.2990   -2.8760 C.3    22  LYS22       0.0206
     29  CE        11.2440    6.2870   -4.2940 C.3    22  LYS22       0.1093
     30  NZ         9.7580    6.1650   -4.2770 N.3    22  LYS22      -0.1314
     31  N         15.7370    6.8040    1.0020 N.am   23  ALA23      -0.1977
     32  CA        16.0890    7.3050    2.3280 C.3    23  ALA23       0.1597
     33  C         17.5070    7.8980    2.3290 C.2    23  ALA23       0.2287
     34  O         17.7100    9.0220    2.7950 O.2    23  ALA23      -0.2864
     35  CB        15.9640    6.2020    3.3740 C.3    23  ALA23       0.0319
     36  N         19.3440    8.8300   -0.2760 N.3    25  MET25      -0.1245
     37  CA        19.4390    9.9520   -1.1960 C.3    25  MET25       0.1570
     38  C         18.8290   11.2070   -0.5530 C.2    25  MET25       0.2261
     39  O         19.3880   12.2950   -0.6700 O.2    25  MET25      -0.2867
     40  CB        18.7570    9.6110   -2.5170 C.3    25  MET25       0.0387
     41  CG        19.2320   10.4210   -3.6660 C.3    25  MET25       0.0595
     42  SD        21.0000   10.2050   -4.0420 S.3    25  MET25      -0.1393
     43  CE        21.1960    8.5360   -4.5630 C.3    25  MET25       0.0692
     44  N         22.4770   10.5130   -9.5120 N.3    63  TYR63      -0.1241
     45  CA        21.2390   10.6330   -8.7580 C.3    63  TYR63       0.1605
     46  C         21.3630   11.6770   -7.6590 C.2    63  TYR63       0.2264
     47  O         20.3740   12.3260   -7.3360 O.2    63  TYR63      -0.2867
     48  CB        20.8120    9.2860   -8.1850 C.3    63  TYR63       0.0534
     49  CG        20.2660    8.3010   -9.2200 C.ar   63  TYR63      -0.0201
     50  CD1       19.8800    8.7040  -10.5180 C.ar   63  TYR63      -0.0009
     51  CD2       20.0880    6.9590   -8.8750 C.ar   63  TYR63      -0.0009
     52  CE1       19.3620    7.7670  -11.4270 C.ar   63  TYR63       0.0417
     53  CE2       19.5750    6.0430   -9.7730 C.ar   63  TYR63       0.0417
     54  CZ        19.2290    6.4570  -11.0530 C.ar   63  TYR63       0.1957
     55  OH        18.7000    5.5580  -11.9420 O.3    63  TYR63      -0.2866
     56  N         20.7740   14.8770   -9.5020 N.3    66  ASP66      -0.1225
     57  CA        19.3570   14.9830   -9.7820 C.3    66  ASP66       0.1805
     58  C         18.5380   15.3490   -8.5460 C.2    66  ASP66       0.2598
     59  O         17.6750   16.2350   -8.5810 O.2    66  ASP66      -0.2718
     60  CB        18.8670   13.6300  -10.3440 C.3    66  ASP66       0.1424
     61  CG        17.3720   13.6560  -10.6910 C.2    66  ASP66       0.3668
     62  OD1       16.9850   14.4020  -11.6160 O.co2  66  ASP66      -0.2456
     63  OD2       16.5710   12.9840  -10.0130 O.co2  66  ASP66      -0.2456
     64  N         18.7990   14.6590   -7.4400 N.am   67  SER67      -0.1952
     65  CA        18.0240   14.8740   -6.2220 C.3    67  SER67       0.1924
     66  C         18.2330   16.2740   -5.6390 C.2    67  SER67       0.2314
     67  O         17.2740   16.9240   -5.2120 O.2    67  SER67      -0.2863
     68  CB        18.3660   13.8060   -5.1790 C.3    67  SER67       0.2116
     69  OG        17.5010   13.8950   -4.0550 O.3    67  SER67      -0.2180
     70  N         16.5440   18.8650   -8.0170 N.3    70  ARG70      -0.1231
     71  CA        15.0900   18.8280   -7.9780 C.3    70  ARG70       0.1694
     72  C         14.5580   19.3560   -6.6290 C.2    70  ARG70       0.2591
     73  O         13.5630   20.0760   -6.5660 O.2    70  ARG70      -0.2718
     74  CB        14.5540   17.4360   -8.3320 C.3    70  ARG70       0.0321
     75  CG        14.9260   17.0600   -9.7730 C.3    70  ARG70       0.0489
     76  CD        14.1260   15.8730  -10.3190 C.3    70  ARG70       0.2205
     77  NE        14.2700   14.6650   -9.5050 N.pl3  70  ARG70      -0.0865
     78  CZ        13.2900   14.1060   -8.7980 C.cat  70  ARG70       0.5346
     79  NH1       12.0850   14.6530   -8.7800 N.pl3  70  ARG70       0.1354
     80  NH2       13.5220   13.0030   -8.0920 N.pl3  70  ARG70       0.1354
     81  N         15.2480   19.0150   -5.5470 N.am   71  GLN71      -0.1979
     82  CA        14.8010   19.4880   -4.2490 C.3    71  GLN71       0.1601
     83  C         15.0270   20.9840   -4.0990 C.2    71  GLN71       0.2287
     84  O         14.1800   21.6890   -3.5530 O.2    71  GLN71      -0.2864
     85  CB        15.5080   18.7310   -3.1230 C.3    71  GLN71       0.0394
     86  CG        15.1450   19.2560   -1.7070 C.3    71  GLN71       0.0908
     87  CD        13.6820   19.1060   -1.3370 C.2    71  GLN71       0.2608
     88  OE1       13.0080   18.1650   -1.7670 O.2    71  GLN71      -0.2717
     89  NE2       13.1680   20.0510   -0.5190 N.am   71  GLN71      -0.0878
     90  N         18.2820    8.0820  -19.2460 N.3   111  ARG111     -0.1231
     91  CA        16.9680    8.3040  -18.6610 C.3   111  ARG111      0.1694
     92  C         16.9080    9.6290  -17.8820 C.2   111  ARG111      0.2591
     93  O         15.9420   10.4100  -18.0500 O.2   111  ARG111     -0.2718
     94  CB        16.6030    7.1330  -17.7700 C.3   111  ARG111      0.0321
     95  CG        15.2210    7.2760  -17.1950 C.3   111  ARG111      0.0489
     96  CD        14.7920    6.0210  -16.5310 C.3   111  ARG111      0.2205
     97  NE        13.4290    6.2340  -16.0550 N.pl3 111  ARG111     -0.0865
     98  CZ        13.0260    6.1100  -14.7950 C.cat 111  ARG111      0.5346
     99  NH1       13.8640    5.7140  -13.8390 N.pl3 111  ARG111      0.1354
    100  NH2       11.7530    6.3470  -14.5060 N.pl3 111  ARG111      0.1354
    101  N         17.9240    9.8890  -17.0630 N.am  112  VAL112     -0.1980
    102  CA        17.9610   11.1270  -16.2780 C.3   112  VAL112      0.1595
    103  C         18.0670   12.3170  -17.2170 C.2   112  VAL112      0.2287
    104  O         17.3230   13.2960  -17.0630 O.2   112  VAL112     -0.2864
    105  CB        19.1220   11.1070  -15.2930 C.3   112  VAL112      0.0276
    106  CG1       19.3080   12.4520  -14.6450 C.3   112  VAL112      0.0022
    107  CG2       18.8730   10.0630  -14.2350 C.3   112  VAL112      0.0022
    108  N         14.7190   13.0860  -18.7270 N.3   115  LEU115     -0.1245
    109  CA        13.8100   13.7250  -17.7660 C.3   115  LEU115      0.1561
    110  C         14.1950   15.1900  -17.5430 C.2   115  LEU115      0.2260
    111  O         13.3170   16.0750  -17.4690 O.2   115  LEU115     -0.2867
    112  CB        13.8550   12.9990  -16.4290 C.3   115  LEU115      0.0270
    113  CG        13.0390   11.7020  -16.4260 C.3   115  LEU115      0.0019
    114  CD1       13.4370   10.8530  -15.2190 C.3   115  LEU115      0.0001
    115  CD2       11.5030   11.8810  -16.4780 C.3   115  LEU115      0.0001
@<TRIPOS>BOND
     1    90    91    1
     2   108   109    1
     3    91    92    1
     4    91    94    1
     5    93    92    2
     6    92   101   am
     7    94    95    1
     8   109   110    1
     9   109   112    1
    10   110   111    2
    11   103   104    2
    12   103   102    1
    13    95    96    1
    14   101   102    1
    15    96    97    1
    16   115   113    1
    17   112   113    1
    18   113   114    1
    19   102   105    1
    20    97    98    2
    21   105   106    1
    22   105   107    1
    23    98   100    1
    24    98    99    1
    25    55    54    1
    26    62    61   ar
    27    52    54   ar
    28    52    50   ar
    29    54    53   ar
    30    61    60    1
    31    61    63   ar
    32    50    49   ar
    33    60    57    1
    34    76    75    1
    35    76    77    1
    36    57    56    1
    37    57    58    1
    38    75    74    1
    39    53    51   ar
    40    44    45    1
    41    77    78    2
    42    49    51   ar
    43    49    48    1
    44    78    79    1
    45    78    80    1
    46    45    48    1
    47    45    46    1
    48    59    58    2
    49    58    64   am
    50    74    71    1
    51    70    71    1
    52    71    72    1
    53    46    47    2
    54    64    65    1
    55    72    73    2
    56    72    81   am
    57     5     6    1
    58     5     2    1
    59     7     6    1
    60     7     1    1
    61    65    66    1
    62    65    68    1
    63     2     1    1
    64     2     3    1
    65    66    67    2
    66    81    82    1
    67    68    69    1
    68     3     8   am
    69     3     4    2
    70    43    42    1
    71     8     9    1
    72    29    30    1
    73    29    28    1
    74    82    83    1
    75    82    85    1
    76    83    84    2
    77    42    41    1
    78    11    10    2
    79    13    12    1
    80    13    15    1
    81    41    40    1
    82    12     9    1
    83    12    14    1
    84     9    10    1
    85    85    86    1
    86    10    16   am
    87    27    28    1
    88    27    26    1
    89    40    37    1
    90    88    87    2
    91    16    17    1
    92    86    87    1
    93    26    23    1
    94    22    23    1
    95    22    18   am
    96    23    24    1
    97    18    19    2
    98    18    17    1
    99    87    89   am
   100    17    20    1
   101    37    38    1
   102    37    36    1
   103    39    38    2
   104    24    25    2
   105    24    31   am
   106    20    21    1
   107    31    32    1
   108    32    33    1
   109    32    35    1
   110    33    34    2
