@<TRIPOS>MOLECULE
tmp/3d9pB00.pdb
 119 112 0 0 0
SMALL
GASTEIGER

@<TRIPOS>ATOM
      1  N         21.3050   -0.6460   -5.9250 N.3    20  PRO20      -0.2102
      2  CA        20.6820    0.6820   -5.9860 C.3    20  PRO20       0.1504
      3  C         20.5920    1.3890   -4.6270 C.2    20  PRO20       0.2576
      4  O         20.2790    0.7640   -3.6090 O.2    20  PRO20      -0.2718
      5  CB        19.2770    0.3780   -6.5200 C.3    20  PRO20       0.0282
      6  CG        18.9980   -1.0200   -6.0540 C.3    20  PRO20       0.0208
      7  CD        20.3210   -1.7250   -6.1660 C.3    20  PRO20       0.0893
      8  N         20.8620    2.6900   -4.6320 N.am   21  ILE21      -0.1966
      9  CA        20.7890    3.5020   -3.4180 C.3    21  ILE21       0.1727
     10  C         19.3300    3.7990   -3.0600 C.2    21  ILE21       0.2617
     11  O         18.5390    4.1810   -3.9280 O.2    21  ILE21      -0.2715
     12  CB        21.6100    4.8040   -3.5640 C.3    21  ILE21       0.0290
     13  CG1       23.0490    4.4870   -4.0360 C.3    21  ILE21       0.0022
     14  CG2       21.6140    5.5980   -2.2490 C.3    21  ILE21       0.0023
     15  CD1       23.8540    3.5510   -3.1050 C.3    21  ILE21       0.0001
     16  N         18.9940    3.6200   -1.7840 N.am   22  SER22      -0.1936
     17  CA        17.6390    3.8530   -1.2810 C.3    22  SER22       0.2055
     18  C         17.1750    5.3170   -1.3540 C.2    22  SER22       0.2643
     19  O         17.9830    6.2410   -1.3060 O.2    22  SER22      -0.2714
     20  CB        17.5400    3.3810    0.1620 C.3    22  SER22       0.2130
     21  OG        18.2440    4.2690    1.0060 O.3    22  SER22      -0.2179
     22  N         15.8560    5.4950   -1.4620 N.am   23  LYS23      -0.1963
     23  CA        15.2040    6.7980   -1.3210 C.3    23  LYS23       0.1728
     24  C         15.6310    7.4970   -0.0310 C.2    23  LYS23       0.2616
     25  O         15.9660    8.6830   -0.0450 O.2    23  LYS23      -0.2715
     26  CB        13.6770    6.6240   -1.3140 C.3    23  LYS23       0.0311
     27  CG        13.0210    6.8330   -2.6710 C.3    23  LYS23       0.0038
     28  CD        11.5050    6.6160   -2.6230 C.3    23  LYS23       0.0206
     29  CE        11.1200    5.1910   -3.0300 C.3    23  LYS23       0.1093
     30  NZ         9.7930    5.1380   -3.7130 N.3    23  LYS23      -0.1314
     31  N         15.6060    6.7530    1.0750 N.am   24  ALA24      -0.1977
     32  CA        15.9810    7.2770    2.3850 C.3    24  ALA24       0.1597
     33  C         17.3930    7.8590    2.4020 C.2    24  ALA24       0.2287
     34  O         17.5970    8.9560    2.9140 O.2    24  ALA24      -0.2864
     35  CB        15.8220    6.2050    3.4650 C.3    24  ALA24       0.0319
     36  N         19.2190    8.8450   -0.2650 N.3    26  MET26      -0.1245
     37  CA        19.2700    9.9890   -1.1920 C.3    26  MET26       0.1570
     38  C         18.6890   11.2680   -0.5610 C.2    26  MET26       0.2261
     39  O         19.2480   12.3550   -0.7120 O.2    26  MET26      -0.2867
     40  CB        18.5660    9.6470   -2.5050 C.3    26  MET26       0.0387
     41  CG        19.0420   10.4590   -3.6950 C.3    26  MET26       0.0595
     42  SD        20.8260   10.4220   -4.0220 S.3    26  MET26      -0.1393
     43  CE        21.1260    8.7420   -4.5240 C.3    26  MET26       0.0692
     44  N         22.3640   10.6090   -9.6170 N.3    64  TYR64      -0.1241
     45  CA        21.1170   10.6900   -8.8600 C.3    64  TYR64       0.1605
     46  C         21.2040   11.7420   -7.7450 C.2    64  TYR64       0.2264
     47  O         20.2090   12.4070   -7.4300 O.2    64  TYR64      -0.2867
     48  CB        20.7270    9.3140   -8.2900 C.3    64  TYR64       0.0534
     49  CG        20.2020    8.3030   -9.3030 C.ar   64  TYR64      -0.0201
     50  CD1       19.8300    8.6880  -10.5990 C.ar   64  TYR64      -0.0009
     51  CD2       20.0530    6.9580   -8.9530 C.ar   64  TYR64      -0.0009
     52  CE1       19.3520    7.7440  -11.5330 C.ar   64  TYR64       0.0417
     53  CE2       19.5440    6.0060   -9.8760 C.ar   64  TYR64       0.0417
     54  CZ        19.2100    6.4110  -11.1630 C.ar   64  TYR64       0.1957
     55  OH        18.7090    5.4900  -12.0700 O.3    64  TYR64      -0.2866
     56  N         20.6380   15.0980   -9.5840 N.3    67  ASP67      -0.1225
     57  CA        19.2140   15.1560   -9.8840 C.3    67  ASP67       0.1805
     58  C         18.3950   15.4860   -8.6250 C.2    67  ASP67       0.2598
     59  O         17.5090   16.3570   -8.6470 O.2    67  ASP67      -0.2718
     60  CB        18.7640   13.8000  -10.4540 C.3    67  ASP67       0.1424
     61  CG        17.2840   13.7650  -10.8000 C.2    67  ASP67       0.3668
     62  OD1       16.8630   14.4860  -11.7330 O.co2  67  ASP67      -0.2456
     63  OD2       16.5430   13.0130  -10.1430 O.co2  67  ASP67      -0.2456
     64  N         18.6950   14.7730   -7.5400 N.am   68  SER68      -0.1952
     65  CA        17.9660   14.9220   -6.2810 C.3    68  SER68       0.1924
     66  C         18.1680   16.3210   -5.6870 C.2    68  SER68       0.2314
     67  O         17.2000   16.9780   -5.2920 O.2    68  SER68      -0.2863
     68  CB        18.4110   13.8520   -5.2730 C.3    68  SER68       0.2116
     69  OG        17.5100   13.7760   -4.1910 O.3    68  SER68      -0.2180
     70  N         16.4850   19.0650   -8.0580 N.3    71  ARG71      -0.1245
     71  CA        15.0220   19.0490   -7.9970 C.3    71  ARG71       0.1563
     72  C         14.4960   19.5170   -6.6450 C.2    71  ARG71       0.2260
     73  O         13.5130   20.2520   -6.5850 O.2    71  ARG71      -0.2867
     74  CB        14.4630   17.6790   -8.3850 C.3    71  ARG71       0.0307
     75  CG        14.7010   17.3470   -9.8780 C.3    71  ARG71       0.0489
     76  CD        13.8300   16.1860  -10.3810 C.3    71  ARG71       0.2205
     77  NE        14.0660   14.9520   -9.6340 N.pl3  71  ARG71      -0.0865
     78  CZ        13.1310   14.2750   -8.9680 C.cat  71  ARG71       0.5346
     79  NH1       11.8730   14.6930   -8.9590 N.pl3  71  ARG71       0.1354
     80  NH2       13.4560   13.1640   -8.3120 N.pl3  71  ARG71       0.1354
     81  N         20.5990    4.2820  -17.7960 N.3   109  LYS109     -0.1245
     82  CA        20.1360    5.0130  -16.6000 C.3   109  LYS109      0.1561
     83  C         20.4790    6.5010  -16.6520 C.2   109  LYS109      0.2260
     84  O         19.7250    7.3590  -16.1660 O.2   109  LYS109     -0.2867
     85  CB        20.7060    4.3800  -15.3280 C.3   109  LYS109      0.0271
     86  CG        20.2430    2.9380  -15.1130 C.3   109  LYS109      0.0035
     87  CD        21.0140    2.2750  -13.9990 C.3   109  LYS109      0.0206
     88  CE        20.5140    0.8540  -13.7750 C.3   109  LYS109      0.1093
     89  NZ        21.3000    0.2200  -12.6840 N.3   109  LYS109     -0.1314
     90  N         18.0930    8.1110  -19.2590 N.3   112  THR112     -0.1203
     91  CA        16.7650    8.2900  -18.6350 C.3   112  THR112      0.1994
     92  C         16.7080    9.6210  -17.8550 C.2   112  THR112      0.2617
     93  O         15.7590   10.3890  -18.0080 O.2   112  THR112     -0.2717
     94  CB        16.3830    7.0800  -17.7600 C.3   112  THR112      0.1784
     95  OG1       16.3120    5.9230  -18.5930 O.3   112  THR112     -0.2211
     96  CG2       15.0100    7.2720  -17.0650 C.3   112  THR112      0.0376
     97  N         17.7370    9.8980  -17.0600 N.am  113  VAL113     -0.1979
     98  CA        17.8440   11.1750  -16.3250 C.3   113  VAL113      0.1595
     99  C         17.9170   12.3800  -17.2810 C.2   113  VAL113      0.2287
    100  O         17.1990   13.3730  -17.1080 O.2   113  VAL113     -0.2864
    101  CB        19.0680   11.1880  -15.3550 C.3   113  VAL113      0.0276
    102  CG1       19.2230   12.5410  -14.6690 C.3   113  VAL113      0.0022
    103  CG2       18.9400   10.1020  -14.3010 C.3   113  VAL113      0.0022
    104  N         14.4870   13.0600  -18.8190 N.3   116  LEU116     -0.1245
    105  CA        13.6780   13.7040  -17.7920 C.3   116  LEU116      0.1561
    106  C         14.0660   15.1780  -17.5650 C.2   116  LEU116      0.2260
    107  O         13.1870   16.0280  -17.4230 O.2   116  LEU116     -0.2867
    108  CB        13.7360   12.9040  -16.4810 C.3   116  LEU116      0.0270
    109  CG        12.9250   11.5910  -16.4830 C.3   116  LEU116      0.0019
    110  CD1       13.3100   10.6830  -15.3170 C.3   116  LEU116      0.0001
    111  CD2       11.3990   11.8380  -16.4810 C.3   116  LEU116      0.0001
    112  N         11.3220   18.0270  -18.3250 N.3   120  ASN120     -0.1240
    113  CA        10.8450   18.8530  -17.2210 C.3   120  ASN120      0.1653
    114  C         11.5570   20.2030  -17.1110 C.2   120  ASN120      0.2266
    115  O         11.3850   20.9260  -16.1280 O.2   120  ASN120     -0.2867
    116  CB        10.9320   18.0780  -15.9010 C.3   120  ASN120      0.1155
    117  CG         9.9870   16.8870  -15.8530 C.2   120  ASN120      0.2627
    118  OD1        8.9010   16.9100  -16.4270 O.2   120  ASN120     -0.2716
    119  ND2       10.4000   15.8390  -15.1510 N.am  120  ASN120     -0.0877
@<TRIPOS>BOND
     1    90    91    1
     2   104   105    1
     3    91    92    1
     4    91    94    1
     5    95    94    1
     6   112   113    1
     7    93    92    2
     8    92    97   am
     9    81    82    1
    10   105   106    1
    11   105   108    1
    12    94    96    1
    13   106   107    2
    14    99   100    2
    15    99    98    1
    16   113   114    1
    17   113   116    1
    18   114   115    2
    19    97    98    1
    20    83    82    1
    21    83    84    2
    22    82    85    1
    23   109   108    1
    24   109   111    1
    25   109   110    1
    26   118   117    2
    27    98   101    1
    28   116   117    1
    29   117   119   am
    30   101   102    1
    31   101   103    1
    32    85    86    1
    33    86    87    1
    34    87    88    1
    35    88    89    1
    36    55    54    1
    37    62    61   ar
    38    52    54   ar
    39    52    50   ar
    40    54    53   ar
    41    61    60    1
    42    61    63   ar
    43    50    49   ar
    44    60    57    1
    45    76    75    1
    46    76    77    1
    47    57    56    1
    48    57    58    1
    49    75    74    1
    50    53    51   ar
    51    77    78    2
    52    44    45    1
    53    49    51   ar
    54    49    48    1
    55    78    79    1
    56    78    80    1
    57    45    48    1
    58    45    46    1
    59    59    58    2
    60    58    64   am
    61    74    71    1
    62    70    71    1
    63    71    72    1
    64    46    47    2
    65    64    65    1
    66    72    73    2
    67     5     6    1
    68     5     2    1
    69    65    66    1
    70    65    68    1
    71     7     6    1
    72     7     1    1
    73     2     1    1
    74     2     3    1
    75    66    67    2
    76    68    69    1
    77     8     3   am
    78     8     9    1
    79     3     4    2
    80    43    42    1
    81    13    12    1
    82    13    15    1
    83    42    41    1
    84    11    10    2
    85    30    29    1
    86    41    40    1
    87    12     9    1
    88    12    14    1
    89     9    10    1
    90    10    16   am
    91    29    28    1
    92    27    28    1
    93    27    26    1
    94    40    37    1
    95    16    17    1
    96    22    18   am
    97    22    23    1
    98    18    19    2
    99    18    17    1
   100    23    26    1
   101    23    24    1
   102    17    20    1
   103    37    38    1
   104    37    36    1
   105    39    38    2
   106    25    24    2
   107    24    31   am
   108    20    21    1
   109    31    32    1
   110    32    33    1
   111    32    35    1
   112    33    34    2
