@<TRIPOS>MOLECULE
tmp/3d9pA00.pdb
 106 100 0 0 0
SMALL
GASTEIGER

@<TRIPOS>ATOM
      1  N         30.4980   10.8790   12.9030 N.3    19  PRO19      -0.2102
      2  CA        31.2880    9.6530   12.7820 C.3    19  PRO19       0.1504
      3  C         31.7500    9.3270   11.3590 C.2    19  PRO19       0.2576
      4  O         31.0170    9.5360   10.3850 O.2    19  PRO19      -0.2718
      5  CB        30.3310    8.5710   13.2960 C.3    19  PRO19       0.0282
      6  CG        28.9850    9.1000   12.9850 C.3    19  PRO19       0.0208
      7  CD        29.0820   10.5860   13.1870 C.3    19  PRO19       0.0893
      8  N         32.9650    8.7960   11.2740 N.am   20  ILE20      -0.1966
      9  CA        33.6100    8.4780   10.0080 C.3    20  ILE20       0.1727
     10  C         33.0310    7.2150    9.3810 C.2    20  ILE20       0.2617
     11  O         32.7090    6.2490   10.0670 O.2    20  ILE20      -0.2715
     12  CB        35.1590    8.3820   10.1770 C.3    20  ILE20       0.0290
     13  CG1       35.7410    9.7170   10.6850 C.3    20  ILE20       0.0022
     14  CG2       35.8420    7.9280    8.8870 C.3    20  ILE20       0.0023
     15  CD1       35.5220   10.9470    9.7880 C.3    20  ILE20       0.0001
     16  N         32.8770    7.2730    8.0620 N.am   21  SER21      -0.1936
     17  CA        32.4540    6.1600    7.2280 C.3    21  SER21       0.2055
     18  C         33.3090    4.9040    7.4360 C.2    21  SER21       0.2642
     19  O         34.5210    4.9810    7.5900 O.2    21  SER21      -0.2714
     20  CB        32.5390    6.5890    5.7690 C.3    21  SER21       0.2130
     21  OG        32.4670    5.4730    4.9140 O.3    21  SER21      -0.2179
     22  N         32.6490    3.7520    7.4260 N.am   22  LYS22      -0.1977
     23  CA        33.3270    2.4630    7.4870 C.3    22  LYS22       0.1596
     24  C         34.2750    2.3150    6.2850 C.2    22  LYS22       0.2287
     25  O         35.4110    1.8930    6.4360 O.2    22  LYS22      -0.2864
     26  CB        32.2850    1.3370    7.4920 C.3    22  LYS22       0.0298
     27  CG        32.7610    0.0520    8.1600 C.3    22  LYS22       0.0038
     28  CD        32.0590   -1.1900    7.6060 C.3    22  LYS22       0.0206
     29  CE        32.8740   -2.4430    7.9750 C.3    22  LYS22       0.1093
     30  NZ        32.4070   -3.6680    7.2700 N.3    22  LYS22      -0.1314
     31  N         37.4170    4.4090    6.8390 N.3    25  MET25      -0.1245
     32  CA        38.2620    3.7090    7.8080 C.3    25  MET25       0.1570
     33  C         38.9540    2.4840    7.1910 C.2    25  MET25       0.2261
     34  O         40.1150    2.2080    7.4950 O.2    25  MET25      -0.2867
     35  CB        37.4450    3.2910    9.0410 C.3    25  MET25       0.0387
     36  CG        37.0150    4.4550    9.9600 C.3    25  MET25       0.0595
     37  SD        38.3790    5.2790   10.8410 S.3    25  MET25      -0.1393
     38  CE        39.4900    3.9390   11.1360 C.3    25  MET25       0.0692
     39  N         39.9910    5.2360   16.4480 N.3    63  TYR63      -0.1241
     40  CA        39.4280    4.2120   15.5890 C.3    63  TYR63       0.1605
     41  C         40.3950    3.8030   14.5010 C.2    63  TYR63       0.2264
     42  O         40.3590    2.6650   14.0640 O.2    63  TYR63      -0.2867
     43  CB        38.0950    4.6230   14.9700 C.3    63  TYR63       0.0534
     44  CG        36.9300    4.7170   15.9440 C.ar   63  TYR63      -0.0201
     45  CD1       37.0220    4.2080   17.2420 C.ar   63  TYR63      -0.0009
     46  CD2       35.7210    5.2930   15.5510 C.ar   63  TYR63      -0.0009
     47  CE1       35.9470    4.2960   18.1300 C.ar   63  TYR63       0.0417
     48  CE2       34.6390    5.3780   16.4280 C.ar   63  TYR63       0.0417
     49  CZ        34.7580    4.8780   17.7170 C.ar   63  TYR63       0.1957
     50  OH        33.6960    4.9660   18.5970 O.3    63  TYR63      -0.2866
     51  N         42.7440    1.3890   16.3490 N.3    66  ASP66      -0.1225
     52  CA        41.9380    0.1840   16.5350 C.3    66  ASP66       0.1805
     53  C         41.7890   -0.6150   15.2470 C.2    66  ASP66       0.2598
     54  O         42.0210   -1.8340   15.2500 O.2    66  ASP66      -0.2718
     55  CB        40.5500    0.5010   17.1070 C.3    66  ASP66       0.1424
     56  CG        39.7730   -0.7600   17.4640 C.2    66  ASP66       0.3668
     57  OD1       40.2840   -1.5720   18.2640 O.co2  66  ASP66      -0.2456
     58  OD2       38.6720   -0.9600   16.9300 O.co2  66  ASP66      -0.2456
     59  N         41.3770    0.0500   14.1630 N.am   67  SER67      -0.1952
     60  CA        41.1750   -0.6500   12.9030 C.3    67  SER67       0.1924
     61  C         42.4650   -1.2910   12.3930 C.2    67  SER67       0.2314
     62  O         42.4380   -2.4170   11.8860 O.2    67  SER67      -0.2863
     63  CB        40.5900    0.2820   11.8420 C.3    67  SER67       0.2116
     64  OG        40.3500   -0.4350   10.6510 O.3    67  SER67      -0.2180
     65  N         43.6380   -4.3590   14.7360 N.3    70  ARG70      -0.1245
     66  CA        42.7600   -5.5300   14.5630 C.3    70  ARG70       0.1563
     67  C         42.9710   -6.2250   13.2190 C.2    70  ARG70       0.2260
     68  O         42.9900   -7.4620   13.1400 O.2    70  ARG70      -0.2867
     69  CB        41.2720   -5.1600   14.6890 C.3    70  ARG70       0.0307
     70  CG        40.7890   -4.6860   16.0780 C.3    70  ARG70       0.0489
     71  CD        41.5380   -5.3170   17.2490 C.3    70  ARG70       0.2205
     72  NE        40.7300   -5.2920   18.4650 N.pl3  70  ARG70      -0.0865
     73  CZ        40.1430   -6.3620   19.0010 C.cat  70  ARG70       0.5346
     74  NH1       40.2910   -7.5570   18.4470 N.pl3  70  ARG70       0.1354
     75  NH2       39.4220   -6.2370   20.1100 N.pl3  70  ARG70       0.1354
     76  N         33.3820    6.7070   24.2490 N.3   108  LYS108     -0.1245
     77  CA        33.8010    5.9890   23.0510 C.3   108  LYS108      0.1561
     78  C         35.2280    5.4590   23.1920 C.2   108  LYS108      0.2260
     79  O         35.5570    4.3910   22.6770 O.2   108  LYS108     -0.2867
     80  CB        33.7010    6.9070   21.8270 C.3   108  LYS108      0.0271
     81  CG        32.2710    7.3640   21.5070 C.3   108  LYS108      0.0035
     82  CD        32.2520    8.3480   20.3480 C.3   108  LYS108      0.0206
     83  CE        30.8930    9.0150   20.1950 C.3   108  LYS108      0.1093
     84  NZ        29.8220    8.0050   20.0050 N.3   108  LYS108     -0.1314
     85  N         35.1770    2.3860   25.7110 N.3   111  THR111     -0.1203
     86  CA        34.6950    1.2090   24.9910 C.3   111  THR111      0.1994
     87  C         35.8080    0.4840   24.2200 C.2   111  THR111      0.2617
     88  O         35.9210   -0.7360   24.3040 O.2   111  THR111     -0.2717
     89  CB        33.5310    1.5630   24.0090 C.3   111  THR111      0.1784
     90  OG1       32.4460    2.1400   24.7400 O.3   111  THR111     -0.2211
     91  CG2       33.0350    0.3230   23.2710 C.3   111  THR111      0.0376
     92  N         36.5980    1.2300   23.4540 N.am  112  VAL112     -0.1979
     93  CA        37.7460    0.6730   22.7430 C.3   112  VAL112      0.1595
     94  C         38.7200   -0.0260   23.7100 C.2   112  VAL112      0.2287
     95  O         39.1390   -1.1690   23.4670 O.2   112  VAL112     -0.2864
     96  CB        38.5000    1.7490   21.8770 C.3   112  VAL112      0.0276
     97  CG1       39.7740    1.1690   21.2830 C.3   112  VAL112      0.0022
     98  CG2       37.6100    2.2590   20.7300 C.3   112  VAL112      0.0022
     99  N         37.4020   -3.2780   25.0730 N.3   115  LEU115     -0.1245
    100  CA        37.5000   -4.3140   24.0380 C.3   115  LEU115      0.1561
    101  C         38.9360   -4.7930   23.8110 C.2   115  LEU115      0.2260
    102  O         39.1710   -5.9920   23.6260 O.2   115  LEU115     -0.2867
    103  CB        36.8480   -3.8620   22.7260 C.3   115  LEU115      0.0270
    104  CG        35.3050   -3.7830   22.7450 C.3   115  LEU115      0.0019
    105  CD1       34.8150   -2.9830   21.5310 C.3   115  LEU115      0.0001
    106  CD2       34.6350   -5.1600   22.7690 C.3   115  LEU115      0.0001
@<TRIPOS>BOND
     1    21    20    1
     2    20    17    1
     3    24    25    2
     4    24    23    1
     5    31    32    1
     6    33    34    2
     7    33    32    1
     8    17    18    1
     9    17    16    1
    10    30    29    1
    11    22    18   am
    12    22    23    1
    13    18    19    2
    14    23    26    1
    15    26    27    1
    16    28    29    1
    17    28    27    1
    18    32    35    1
    19    16    10   am
    20    14    12    1
    21    35    36    1
    22    10     9    1
    23    10    11    2
    24    15    13    1
    25    36    37    1
    26     9    12    1
    27     9     8    1
    28    12    13    1
    29     4     3    2
    30    64    63    1
    31    37    38    1
    32     8     3   am
    33     3     2    1
    34    63    60    1
    35    62    61    2
    36    61    60    1
    37     2     1    1
    38     2     5    1
    39    60    59    1
    40     1     7    1
    41     6     7    1
    42     6     5    1
    43    68    67    2
    44    67    66    1
    45    42    41    2
    46    59    53   am
    47    41    40    1
    48    66    69    1
    49    66    65    1
    50    69    70    1
    51    43    40    1
    52    43    44    1
    53    53    54    2
    54    53    52    1
    55    46    44   ar
    56    46    48   ar
    57    40    39    1
    58    44    45   ar
    59    70    71    1
    60    51    52    1
    61    48    49   ar
    62    52    55    1
    63    58    56   ar
    64    55    56    1
    65    45    47   ar
    66    71    72    1
    67    56    57   ar
    68    49    47   ar
    69    49    50    1
    70    74    73    1
    71    72    73    2
    72    73    75    1
    73    84    83    1
    74    83    82    1
    75    82    81    1
    76    98    96    1
    77    97    96    1
    78    81    80    1
    79   105   104    1
    80    80    77    1
    81    96    93    1
    82    79    78    2
    83   103   104    1
    84   103   100    1
    85    93    92    1
    86    93    94    1
    87   104   106    1
    88    77    78    1
    89    77    76    1
    90    91    89    1
    91    92    87   am
    92    95    94    2
    93   102   101    2
    94   101   100    1
    95    89    90    1
    96    89    86    1
    97   100    99    1
    98    87    88    2
    99    87    86    1
   100    86    85    1
