@<TRIPOS>MOLECULE
tmp/3d9tA00.pdb
 137 136 0 0 0
SMALL
GASTEIGER

@<TRIPOS>ATOM
      1  N         12.3230  -16.9410   -8.7610 N.3    36  VAL36      -0.1245
      2  CA        12.1660  -18.2500   -9.4010 C.3    36  VAL36       0.1561
      3  C         12.5740  -19.4090   -8.4910 C.2    36  VAL36       0.2260
      4  O         12.4330  -20.5810   -8.8830 O.2    36  VAL36      -0.2867
      5  CB        12.9900  -18.3690  -10.7070 C.3    36  VAL36       0.0252
      6  CG1       12.5900  -17.2520  -11.6670 C.3    36  VAL36       0.0019
      7  CG2       14.4660  -18.2990  -10.4170 C.3    36  VAL36       0.0019
      8  N         17.9510  -15.4650   -8.3070 N.3    41  ASP41      -0.1225
      9  CA        17.4460  -15.3740   -9.6960 C.3    41  ASP41       0.1805
     10  C         16.0110  -14.8540   -9.6730 C.2    41  ASP41       0.2598
     11  O         15.1270  -15.4660   -9.0270 O.2    41  ASP41      -0.2718
     12  CB        17.4280  -16.7360  -10.3840 C.3    41  ASP41       0.1424
     13  CG        18.8140  -17.2600  -10.7480 C.2    41  ASP41       0.3668
     14  OD1       19.8360  -16.6690  -10.3680 O.co2  41  ASP41      -0.2456
     15  OD2       18.7940  -18.2980  -11.4310 O.co2  41  ASP41      -0.2456
     16  N         15.7480  -13.7800  -10.4250 N.am   42  VAL42      -0.1966
     17  CA        14.3600  -13.2830  -10.5790 C.3    42  VAL42       0.1727
     18  C         14.0650  -13.1200  -12.0520 C.2    42  VAL42       0.2616
     19  O         15.0000  -13.0550  -12.8590 O.2    42  VAL42      -0.2715
     20  CB        14.1380  -11.9210   -9.8900 C.3    42  VAL42       0.0290
     21  CG1       14.4780  -12.0210   -8.3630 C.3    42  VAL42       0.0023
     22  CG2       15.0030  -10.8190  -10.6000 C.3    42  VAL42       0.0023
     23  N         12.7840  -13.0610  -12.3880 N.am   43  LYS43      -0.1977
     24  CA        12.3640  -12.9080  -13.7910 C.3    43  LYS43       0.1596
     25  C         11.2580  -11.8830  -13.8660 C.2    43  LYS43       0.2287
     26  O         10.4680  -11.7220  -12.9310 O.2    43  LYS43      -0.2864
     27  CB        11.8630  -14.2370  -14.3270 C.3    43  LYS43       0.0298
     28  CG        12.9590  -15.2290  -14.6250 C.3    43  LYS43       0.0038
     29  CD        12.4210  -16.3930  -15.4290 C.3    43  LYS43       0.0206
     30  CE        13.0020  -16.3570  -16.8370 C.3    43  LYS43       0.1093
     31  NZ        12.7600  -17.5940  -17.6310 N.3    43  LYS43      -0.1314
     32  N          9.9480  -11.6000  -19.5170 N.3    48  ASP48      -0.1225
     33  CA        10.6860  -12.8220  -19.1660 C.3    48  ASP48       0.1805
     34  C         12.2000  -12.6260  -19.0230 C.2    48  ASP48       0.2598
     35  O         12.9690  -13.6120  -18.9800 O.2    48  ASP48      -0.2718
     36  CB        10.4090  -13.9510  -20.1880 C.3    48  ASP48       0.1424
     37  CG        10.6150  -15.3470  -19.5900 C.2    48  ASP48       0.3668
     38  OD1       10.2640  -15.5530  -18.4110 O.co2  48  ASP48      -0.2456
     39  OD2       11.1400  -16.2520  -20.2960 O.co2  48  ASP48      -0.2456
     40  N         12.6610  -11.3840  -18.9270 N.am   49  GLY49      -0.1942
     41  CA        14.0620  -11.1570  -18.6550 C.3    49  GLY49       0.2014
     42  C         14.4550  -11.6530  -17.2770 C.2    49  GLY49       0.2639
     43  O         13.7200  -11.4200  -16.3150 O.2    49  GLY49      -0.2714
     44  N         15.6090  -12.3190  -17.1780 N.am   50  GLY50      -0.1939
     45  CA        16.0860  -12.7670  -15.8710 C.3    50  GLY50       0.2014
     46  C         17.2060  -11.8780  -15.3630 C.2    50  GLY50       0.2639
     47  O         18.0850  -11.3800  -16.1250 O.2    50  GLY50      -0.2714
     48  N         17.2470  -11.6570  -14.0560 N.am   51  LEU51      -0.1963
     49  CA        18.3570  -10.9430  -13.4420 C.3    51  LEU51       0.1728
     50  C         18.8180  -11.6880  -12.1970 C.2    51  LEU51       0.2616
     51  O         17.9970  -12.2500  -11.4510 O.2    51  LEU51      -0.2715
     52  CB        17.9510   -9.5220  -13.0450 C.3    51  LEU51       0.0311
     53  CG        17.7010   -8.5440  -14.2100 C.3    51  LEU51       0.0022
     54  CD1       17.1730   -7.2310  -13.6320 C.3    51  LEU51       0.0001
     55  CD2       19.0340   -8.2590  -14.9660 C.3    51  LEU51       0.0001
     56  N         20.1240  -11.6850  -11.9730 N.am   52  ARG52      -0.1963
     57  CA        20.7030  -12.3360  -10.7970 C.3    52  ARG52       0.1729
     58  C         21.9350  -11.5420  -10.3350 C.2    52  ARG52       0.2616
     59  O         22.2800  -10.4920  -10.9040 O.2    52  ARG52      -0.2715
     60  CB        21.0910  -13.7750  -11.1270 C.3    52  ARG52       0.0348
     61  CG        22.1570  -13.8710  -12.2260 C.3    52  ARG52       0.0492
     62  CD        22.7930  -15.2560  -12.2150 C.3    52  ARG52       0.2205
     63  NE        21.8130  -16.3020  -12.3960 N.pl3  52  ARG52      -0.0865
     64  CZ        21.6550  -17.0030  -13.5160 C.cat  52  ARG52       0.5346
     65  NH1       22.4480  -16.7450  -14.5640 N.pl3  52  ARG52       0.1354
     66  NH2       20.7300  -17.9450  -13.6100 N.pl3  52  ARG52       0.1354
     67  N         22.6020  -12.0190   -9.2920 N.am   53  CYS53      -0.1954
     68  CA        23.8150  -11.3720   -8.8010 C.3    53  CYS53       0.1843
     69  C         23.5820   -9.9200   -8.4240 C.2    53  CYS53       0.2625
     70  O         24.3630   -9.0210   -8.7340 O.2    53  CYS53      -0.2714
     71  CB        24.9370  -11.5050   -9.8480 C.3    53  CYS53       0.0997
     72  SG        25.4160  -13.1670  -10.0440 S.3    53  CYS53      -0.0797
     73  N         22.4820   -9.6860   -7.7170 N.am   54  TRP54      -0.1960
     74  CA        22.1430   -8.3970   -7.1900 C.3    54  TRP54       0.1771
     75  C         23.2140   -7.8240   -6.2710 C.2    54  TRP54       0.2619
     76  O         23.7890   -8.5440   -5.4350 O.2    54  TRP54      -0.2715
     77  CB        20.7800   -8.4880   -6.4730 C.3    54  TRP54       0.0590
     78  CG        19.6630   -8.7420   -7.4820 C.ar   54  TRP54       0.0006
     79  CD1       19.1640   -9.9460   -7.8600 C.ar   54  TRP54       0.0946
     80  CD2       19.0020   -7.7530   -8.2870 C.ar   54  TRP54       0.0152
     81  NE1       18.2170   -9.7860   -8.8710 N.ar   54  TRP54      -0.2442
     82  CE2       18.1130   -8.4440   -9.1380 C.ar   54  TRP54       0.0810
     83  CE3       19.0760   -6.3540   -8.3620 C.ar   54  TRP54       0.0012
     84  CZ2       17.2960   -7.7900  -10.0590 C.ar   54  TRP54       0.0191
     85  CZ3       18.2490   -5.6950   -9.2890 C.ar   54  TRP54       0.0001
     86  CH2       17.3860   -6.4100  -10.1130 C.ar   54  TRP54       0.0015
     87  N         23.4810   -6.5350   -6.4040 N.am   55  GLU55      -0.1977
     88  CA        24.5360   -5.8910   -5.6240 C.3    55  GLU55       0.1602
     89  C         23.9840   -4.7780   -4.7880 C.2    55  GLU55       0.2287
     90  O         22.9810   -4.1500   -5.1430 O.2    55  GLU55      -0.2864
     91  CB        25.6170   -5.3060   -6.5310 C.3    55  GLU55       0.0415
     92  CG        26.2760   -6.3240   -7.4180 C.3    55  GLU55       0.1163
     93  CD        27.6240   -5.8380   -7.8770 C.2    55  GLU55       0.3649
     94  OE1       28.6260   -6.0430   -7.1260 O.co2  55  GLU55      -0.2457
     95  OE2       27.6530   -5.2450   -8.9710 O.co2  55  GLU55      -0.2457
     96  N         21.8820   -1.5960   -6.0760 N.3    58  ASP58      -0.1239
     97  CA        21.1580   -1.7950   -7.3390 C.3    58  ASP58       0.1674
     98  C         19.7230   -1.2610   -7.2230 C.2    58  ASP58       0.2266
     99  O         19.0430   -1.4310   -6.1990 O.2    58  ASP58      -0.2867
    100  CB        21.0650   -3.2580   -7.6990 C.3    58  ASP58       0.1410
    101  CG        22.3250   -3.8020   -8.3250 C.2    58  ASP58       0.3668
    102  OD1       23.2560   -3.0240   -8.6220 O.co2  58  ASP58      -0.2456
    103  OD2       22.3740   -5.0210   -8.5430 O.co2  58  ASP58      -0.2456
    104  N         18.1160   -1.5080  -13.4690 N.3    63  GLU63      -0.1245
    105  CA        18.6000   -2.7530  -14.0420 C.3    63  GLU63       0.1567
    106  C         17.6770   -3.3210  -15.1190 C.2    63  GLU63       0.2260
    107  O         18.1240   -3.8520  -16.1260 O.2    63  GLU63      -0.2867
    108  CB        18.8450   -3.8350  -12.9480 C.3    63  GLU63       0.0388
    109  CG        19.8600   -3.3780  -11.8800 C.3    63  GLU63       0.1160
    110  CD        21.2070   -3.0130  -12.5090 C.2    63  GLU63       0.3649
    111  OE1       21.8270   -3.9350  -13.0510 O.co2  63  GLU63      -0.2457
    112  OE2       21.5700   -1.8270  -12.4790 O.co2  63  GLU63      -0.2457
    113  N         19.0500   -3.8110  -19.1190 N.3    67  TRP67      -0.1227
    114  CA        19.2190   -5.0850  -19.7560 C.3    67  TRP67       0.1737
    115  C         18.0650   -5.4920  -20.6320 C.2    67  TRP67       0.2595
    116  O         18.2370   -6.2850  -21.5790 O.2    67  TRP67      -0.2718
    117  CB        19.4590   -6.1530  -18.6770 C.3    67  TRP67       0.0564
    118  CG        20.7020   -5.8360  -17.8890 C.ar   67  TRP67       0.0003
    119  CD1       20.7980   -5.5560  -16.5650 C.ar   67  TRP67       0.0946
    120  CD2       22.0280   -5.6970  -18.4310 C.ar   67  TRP67       0.0152
    121  NE1       22.1170   -5.2330  -16.2350 N.ar   67  TRP67      -0.2442
    122  CE2       22.8770   -5.3170  -17.3750 C.ar   67  TRP67       0.0810
    123  CE3       22.5690   -5.8570  -19.7200 C.ar   67  TRP67       0.0012
    124  CZ2       24.2460   -5.0860  -17.5590 C.ar   67  TRP67       0.0191
    125  CZ3       23.9430   -5.6260  -19.9020 C.ar   67  TRP67       0.0001
    126  CH2       24.7510   -5.2450  -18.8270 C.ar   67  TRP67       0.0015
    127  N         16.8580   -4.9720  -20.3250 N.am   68  PHE68      -0.1976
    128  CA        15.6470   -5.3950  -21.0490 C.3    68  PHE68       0.1639
    129  C         14.8250   -4.1470  -21.4420 C.2    68  PHE68       0.2290
    130  O         13.6570   -3.9670  -21.0680 O.2    68  PHE68      -0.2864
    131  CB        14.8100   -6.3470  -20.1650 C.3    68  PHE68       0.0560
    132  CG        15.5790   -7.5630  -19.7540 C.ar   68  PHE68      -0.0200
    133  CD1       16.0310   -8.4410  -20.7230 C.ar   68  PHE68      -0.0042
    134  CD2       15.9310   -7.7840  -18.4300 C.ar   68  PHE68      -0.0042
    135  CE1       16.8280   -9.5220  -20.3870 C.ar   68  PHE68      -0.0003
    136  CE2       16.7550   -8.8880  -18.0910 C.ar   68  PHE68      -0.0003
    137  CZ        17.1850   -9.7310  -19.0670 C.ar   68  PHE68      -0.0000
@<TRIPOS>BOND
     1   116   115    2
     2   129   130    2
     3   129   128    1
     4   128   127    1
     5   128   131    1
     6   133   135   ar
     7   133   132   ar
     8   115   127   am
     9   115   114    1
    10   135   137   ar
    11    39    37   ar
    12    36    37    1
    13    36    33    1
    14   131   132    1
    15   125   123   ar
    16   125   126   ar
    17   114   113    1
    18   114   117    1
    19   132   134   ar
    20   123   120   ar
    21    37    38   ar
    22    32    33    1
    23    33    34    1
    24   137   136   ar
    25    34    35    2
    26    34    40   am
    27    40    41    1
    28   126   124   ar
    29   117   118    1
    30    41    42    1
    31   120   118   ar
    32   120   122   ar
    33   134   136   ar
    34   118   119   ar
    35    31    30    1
    36   124   122   ar
    37   122   121   ar
    38    42    44   am
    39    42    43    2
    40    44    45    1
    41    30    29    1
    42   119   121   ar
    43   107   106    2
    44    47    46    2
    45    45    46    1
    46    29    28    1
    47    46    48   am
    48   106   105    1
    49    55    53    1
    50    28    27    1
    51    65    64    1
    52    27    24    1
    53    53    54    1
    54    53    52    1
    55    48    49    1
    56   105   104    1
    57   105   108    1
    58    25    24    1
    59    25    26    2
    60    24    23    1
    61    66    64    1
    62    64    63    2
    63    49    52    1
    64    49    50    1
    65   111   110   ar
    66   108   109    1
    67    19    18    2
    68   110   112   ar
    69   110   109    1
    70    63    62    1
    71    23    18   am
    72    61    62    1
    73    61    60    1
    74    50    56   am
    75    50    51    2
    76    18    17    1
    77    56    57    1
    78     6     5    1
    79    15    13   ar
    80    60    57    1
    81    59    58    2
    82    57    58    1
    83    13    12    1
    84    13    14   ar
    85     5     7    1
    86     5     2    1
    87    22    20    1
    88    17    16    1
    89    17    20    1
    90    16    10   am
    91    12     9    1
    92    58    67   am
    93    86    84   ar
    94    86    85   ar
    95    84    82   ar
    96    72    71    1
    97    20    21    1
    98    71    68    1
    99     9    10    1
   100     9     8    1
   101    10    11    2
   102     2     1    1
   103     2     3    1
   104    67    68    1
   105    85    83   ar
   106    82    81   ar
   107    82    80   ar
   108    95    93   ar
   109     4     3    2
   110    81    79   ar
   111    68    69    1
   112    70    69    2
   113   102   101   ar
   114   103   101   ar
   115    69    73   am
   116    83    80   ar
   117   101   100    1
   118    80    78   ar
   119    93    92    1
   120    93    94   ar
   121    79    78   ar
   122    73    74    1
   123   100    97    1
   124    78    77    1
   125    92    91    1
   126    97    98    1
   127    97    96    1
   128    98    99    2
   129    74    77    1
   130    74    75    1
   131    91    88    1
   132    87    75   am
   133    87    88    1
   134    75    76    2
   135    88    89    1
   136    90    89    2
