@<TRIPOS>MOLECULE
tmp/3d9uA00.pdb
 133 131 0 0 0
SMALL
GASTEIGER

@<TRIPOS>ATOM
      1  N         -1.9550   16.6560   18.9380 N.3    39  VAL39      -0.1245
      2  CA        -1.9440   15.1930   18.9720 C.3    39  VAL39       0.1561
      3  C         -1.9630   14.6890   20.4150 C.2    39  VAL39       0.2260
      4  O         -2.3440   13.5540   20.6700 O.2    39  VAL39      -0.2867
      5  CB        -0.6980   14.6060   18.2860 C.3    39  VAL39       0.0252
      6  CG1       -0.5090   15.2270   16.9120 C.3    39  VAL39       0.0019
      7  CG2        0.5130   14.8310   19.1550 C.3    39  VAL39       0.0019
      8  N          3.3560   18.4820   19.4510 N.3    44  ASP44      -0.1225
      9  CA         3.0120   17.9190   18.1450 C.3    44  ASP44       0.1805
     10  C          1.5890   18.2790   17.7110 C.2    44  ASP44       0.2598
     11  O          0.6420   18.1160   18.4740 O.2    44  ASP44      -0.2718
     12  CB         3.1420   16.3920   18.1700 C.3    44  ASP44       0.1424
     13  CG         4.5580   15.9270   18.4440 C.2    44  ASP44       0.3668
     14  OD1        5.3930   16.7480   18.8900 O.co2  44  ASP44      -0.2456
     15  OD2        4.8370   14.7340   18.2070 O.co2  44  ASP44      -0.2456
     16  N          1.4480   18.7450   16.4730 N.am   45  VAL45      -0.1966
     17  CA         0.1400   19.0410   15.9020 C.3    45  VAL45       0.1727
     18  C          0.0270   18.4840   14.4800 C.2    45  VAL45       0.2616
     19  O          1.0340   18.2340   13.8190 O.2    45  VAL45      -0.2715
     20  CB        -0.1100   20.5630   15.8600 C.3    45  VAL45       0.0290
     21  CG1        0.1030   21.1580   17.2520 C.3    45  VAL45       0.0023
     22  CG2        0.8220   21.2250   14.8540 C.3    45  VAL45       0.0023
     23  N         -1.2030   18.2890   14.0160 N.am   46  LYS46      -0.1977
     24  CA        -1.4530   17.8520   12.6470 C.3    46  LYS46       0.1596
     25  C         -2.5180   18.7070   11.9790 C.2    46  LYS46       0.2287
     26  O         -3.4020   19.2550   12.6410 O.2    46  LYS46      -0.2864
     27  CB        -1.9160   16.3950   12.6150 C.3    46  LYS46       0.0298
     28  CG        -0.8770   15.3900   13.0590 C.3    46  LYS46       0.0038
     29  CD        -1.3200   13.9820   12.6800 C.3    46  LYS46       0.0206
     30  CE        -0.1430   13.1250   12.2150 C.3    46  LYS46       0.1093
     31  NZ         0.4230   12.2880   13.3240 N.3    46  LYS46      -0.1314
     32  N         -2.8090   16.4570    6.6920 N.3    51  ASP51      -0.1239
     33  CA        -2.2360   15.5410    7.6680 C.3    51  ASP51       0.1674
     34  C         -0.7470   15.7950    7.9370 C.2    51  ASP51       0.2266
     35  O         -0.0540   14.9360    8.4950 O.2    51  ASP51      -0.2867
     36  CB        -2.4460   14.0910    7.2310 C.3    51  ASP51       0.1410
     37  CG        -2.2330   13.1020    8.3710 C.2    51  ASP51       0.3668
     38  OD1       -2.7950   13.3180    9.4710 O.co2  51  ASP51      -0.2456
     39  OD2       -1.5070   12.1080    8.1640 O.co2  51  ASP51      -0.2456
     40  N          2.2990   17.0590    9.9450 N.3    53  GLY53      -0.1210
     41  CA         2.5000   17.2610   11.3610 C.3    53  GLY53       0.1956
     42  C          3.7290   18.1270   11.5970 C.2    53  GLY53       0.2612
     43  O          4.7210   18.0370   10.8690 O.2    53  GLY53      -0.2717
     44  N          3.6710   18.9750   12.6160 N.am   54  LEU54      -0.1965
     45  CA         4.7930   19.8390   12.9500 C.3    54  LEU54       0.1728
     46  C          5.0930   19.7290   14.4410 C.2    54  LEU54       0.2616
     47  O          4.1830   19.5040   15.2420 O.2    54  LEU54      -0.2715
     48  CB         4.4600   21.2880   12.5930 C.3    54  LEU54       0.0311
     49  CG         4.2740   21.5580   11.0990 C.3    54  LEU54       0.0022
     50  CD1        3.8270   22.9950   10.8920 C.3    54  LEU54       0.0001
     51  CD2        5.5920   21.2810   10.3530 C.3    54  LEU54       0.0001
     52  N          6.3670   19.8850   14.8010 N.am   55  ARG55      -0.1963
     53  CA         6.7940   19.8460   16.1960 C.3    55  ARG55       0.1729
     54  C          7.9770   20.7780   16.4350 C.2    55  ARG55       0.2616
     55  O          8.5070   21.3650   15.5000 O.2    55  ARG55      -0.2715
     56  CB         7.1760   18.4170   16.5950 C.3    55  ARG55       0.0348
     57  CG         8.0840   17.7190   15.6190 C.3    55  ARG55       0.0492
     58  CD         9.3530   17.2690   16.3270 C.3    55  ARG55       0.2205
     59  NE         9.2120   15.9670   16.9800 N.pl3  55  ARG55      -0.0865
     60  CZ        10.1610   15.3970   17.7160 C.cat  55  ARG55       0.5346
     61  NH1       11.3300   16.0070   17.9010 N.pl3  55  ARG55       0.1354
     62  NH2        9.9380   14.2140   18.2660 N.pl3  55  ARG55       0.1354
     63  N          8.3770   20.9110   17.6950 N.am   56  CYS56      -0.1954
     64  CA         9.4840   21.7800   18.0840 C.3    56  CYS56       0.1843
     65  C          9.2660   23.2190   17.6670 C.2    56  CYS56       0.2625
     66  O         10.1430   23.8280   17.0570 O.2    56  CYS56      -0.2714
     67  CB        10.8090   21.2580   17.5120 C.3    56  CYS56       0.0997
     68  SG        11.1880   19.5350   17.9590 S.3    56  CYS56      -0.0797
     69  N          8.0950   23.7610   17.9860 N.am   57  TRP57      -0.1960
     70  CA         7.7660   25.1580   17.6870 C.3    57  TRP57       0.1771
     71  C          8.7940   26.0740   18.3850 C.2    57  TRP57       0.2619
     72  O          9.2440   25.7960   19.4940 O.2    57  TRP57      -0.2715
     73  CB         6.3330   25.4790   18.1340 C.3    57  TRP57       0.0590
     74  CG         5.3620   24.7100   17.3210 C.ar   57  TRP57       0.0006
     75  CD1        4.9200   23.4390   17.5550 C.ar   57  TRP57       0.0946
     76  CD2        4.7750   25.1180   16.0790 C.ar   57  TRP57       0.0152
     77  NE1        4.0990   23.0300   16.5290 N.ar   57  TRP57      -0.2442
     78  CE2        3.9960   24.0420   15.6110 C.ar   57  TRP57       0.0810
     79  CE3        4.8400   26.2850   15.3140 C.ar   57  TRP57       0.0012
     80  CZ2        3.2890   24.0970   14.4160 C.ar   57  TRP57       0.0191
     81  CZ3        4.1360   26.3390   14.1230 C.ar   57  TRP57       0.0001
     82  CH2        3.3690   25.2480   13.6870 C.ar   57  TRP57       0.0015
     83  N          9.1430   27.1660   17.7200 N.am   58  GLU58      -0.1977
     84  CA        10.0900   28.1130   18.2770 C.3    58  GLU58       0.1602
     85  C          9.4380   29.4740   18.3970 C.2    58  GLU58       0.2287
     86  O          8.5110   29.8020   17.6510 O.2    58  GLU58      -0.2864
     87  CB        11.3320   28.2040   17.3890 C.3    58  GLU58       0.0415
     88  CG        12.1800   26.9470   17.4050 C.3    58  GLU58       0.1163
     89  CD        13.2050   26.9280   16.2890 C.2    58  GLU58       0.3649
     90  OE1       12.8830   27.3820   15.1660 O.co2  58  GLU58      -0.2457
     91  OE2       14.3330   26.4580   16.5420 O.co2  58  GLU58      -0.2457
     92  N          7.5250   31.5550   15.7110 N.3    61  ASP61      -0.1239
     93  CA         6.9880   30.7250   14.6320 C.3    61  ASP61       0.1674
     94  C          5.5610   31.1440   14.3140 C.2    61  ASP61       0.2266
     95  O          4.7770   31.4390   15.2120 O.2    61  ASP61      -0.2867
     96  CB         6.9950   29.2450   15.0200 C.3    61  ASP61       0.1410
     97  CG         8.3360   28.5850   14.7880 C.2    61  ASP61       0.3668
     98  OD1        9.2470   29.2460   14.2530 O.co2  61  ASP61      -0.2456
     99  OD2        8.4800   27.4010   15.1450 O.co2  61  ASP61      -0.2456
    100  N          4.6170   28.3030    8.6110 N.3    66  GLU66      -0.1245
    101  CA         5.1790   26.9680    8.6720 C.3    66  GLU66       0.1567
    102  C          4.3270   26.0280    7.8380 C.2    66  GLU66       0.2260
    103  O          4.8450   25.1250    7.1920 O.2    66  GLU66      -0.2867
    104  CB         5.2420   26.4850   10.1210 C.3    66  GLU66       0.0388
    105  CG         6.1240   27.3370   10.9980 C.3    66  GLU66       0.1160
    106  CD         7.5500   27.3940   10.4920 C.2    66  GLU66       0.3649
    107  OE1        8.2890   26.3940   10.6390 O.co2  66  GLU66      -0.2457
    108  OE2        7.9350   28.4430    9.9440 O.co2  66  GLU66      -0.2457
    109  N          6.2690   24.0010    4.8630 N.3    70  TRP70      -0.1227
    110  CA         6.4480   22.5540    4.8510 C.3    70  TRP70       0.1737
    111  C          5.4120   21.7880    4.0320 C.2    70  TRP70       0.2595
    112  O          5.7000   20.6990    3.5280 O.2    70  TRP70      -0.2718
    113  CB         6.4540   22.0090    6.2790 C.3    70  TRP70       0.0564
    114  CG         7.5550   22.5660    7.1270 C.ar   70  TRP70       0.0003
    115  CD1        7.4460   23.5440    8.0690 C.ar   70  TRP70       0.0946
    116  CD2        8.9370   22.1760    7.1130 C.ar   70  TRP70       0.0152
    117  NE1        8.6690   23.7890    8.6440 N.ar   70  TRP70      -0.2442
    118  CE2        9.6020   22.9620    8.0750 C.ar   70  TRP70       0.0810
    119  CE3        9.6740   21.2390    6.3800 C.ar   70  TRP70       0.0012
    120  CZ2       10.9680   22.8420    8.3260 C.ar   70  TRP70       0.0191
    121  CZ3       11.0340   21.1190    6.6310 C.ar   70  TRP70       0.0001
    122  CH2       11.6670   21.9160    7.5940 C.ar   70  TRP70       0.0015
    123  N          4.2030   22.3310    3.9020 N.am   71  PHE71      -0.1976
    124  CA         3.1590   21.6210    3.1660 C.3    71  PHE71       0.1639
    125  C          2.4400   22.5310    2.1680 C.2    71  PHE71       0.2290
    126  O          1.2290   22.7540    2.2610 O.2    71  PHE71      -0.2864
    127  CB         2.1570   21.0170    4.1490 C.3    71  PHE71       0.0560
    128  CG         2.7970   20.3690    5.3430 C.ar   71  PHE71      -0.0200
    129  CD1        3.5960   19.2490    5.1950 C.ar   71  PHE71      -0.0042
    130  CD2        2.6050   20.8860    6.6180 C.ar   71  PHE71      -0.0042
    131  CE1        4.1960   18.6520    6.3010 C.ar   71  PHE71      -0.0003
    132  CE2        3.1990   20.2980    7.7260 C.ar   71  PHE71      -0.0003
    133  CZ         3.9970   19.1800    7.5680 C.ar   71  PHE71      -0.0000
@<TRIPOS>BOND
     1   125   126    2
     2   125   124    1
     3   124   123    1
     4   124   127    1
     5   112   111    2
     6   123   111   am
     7   111   110    1
     8   127   128    1
     9   110   109    1
    10   110   113    1
    11   129   128   ar
    12   129   131   ar
    13   128   130   ar
    14   113   114    1
    15   131   133   ar
    16   119   121   ar
    17   119   116   ar
    18   130   132   ar
    19   121   122   ar
    20    32    33    1
    21   116   114   ar
    22   116   118   ar
    23   114   115   ar
    24   103   102    2
    25    36    33    1
    26    36    37    1
    27   133   132   ar
    28   122   120   ar
    29    33    34    1
    30   102   101    1
    31    34    35    2
    32   115   117   ar
    33   118   120   ar
    34   118   117   ar
    35    39    37   ar
    36    37    38   ar
    37   100   101    1
    38   101   104    1
    39   108   106   ar
    40    40    41    1
    41   104   105    1
    42    51    49    1
    43   106   107   ar
    44   106   105    1
    45    43    42    2
    46    50    49    1
    47    49    48    1
    48    41    42    1
    49    42    44   am
    50    25    26    2
    51    25    24    1
    52    30    29    1
    53    30    31    1
    54    48    45    1
    55    27    24    1
    56    27    28    1
    57    44    45    1
    58    24    23    1
    59    29    28    1
    60    45    46    1
    61    82    81   ar
    62    82    80   ar
    63    19    18    2
    64    23    18   am
    65    81    79   ar
    66    98    97   ar
    67    94    93    1
    68    94    95    2
    69    80    78   ar
    70    46    52   am
    71    46    47    2
    72    18    17    1
    73    93    96    1
    74    93    92    1
    75    97    96    1
    76    97    99   ar
    77    52    53    1
    78    22    20    1
    79    90    89   ar
    80    79    76   ar
    81    55    54    2
    82    78    76   ar
    83    78    77   ar
    84    57    58    1
    85    57    56    1
    86    20    17    1
    87    20    21    1
    88    17    16    1
    89    76    74   ar
    90    53    54    1
    91    53    56    1
    92    89    91   ar
    93    89    88    1
    94    58    59    1
    95    54    63   am
    96    16    10   am
    97    77    75   ar
    98     6     5    1
    99    59    60    2
   100    66    65    2
   101    74    75   ar
   102    74    73    1
   103    87    88    1
   104    87    84    1
   105    67    68    1
   106    67    64    1
   107    86    85    2
   108    65    69   am
   109    65    64    1
   110    70    69    1
   111    70    73    1
   112    70    71    1
   113    63    64    1
   114    10     9    1
   115    10    11    2
   116    60    61    1
   117    60    62    1
   118    83    84    1
   119    83    71   am
   120     9    12    1
   121     9     8    1
   122    12    13    1
   123    15    13   ar
   124    84    85    1
   125     5     2    1
   126     5     7    1
   127    71    72    2
   128    13    14   ar
   129     1     2    1
   130     2     3    1
   131     3     4    2
