@<TRIPOS>MOLECULE
tmp/3d9zA00.pdb
 129 127 0 0 0
SMALL
GASTEIGER

@<TRIPOS>ATOM
      1  N        -14.0980    7.8280   12.8020 N.3    88  ILE88      -0.1231
      2  CA       -13.2750    8.2810   11.6790 C.3    88  ILE88       0.1692
      3  C        -12.9640    7.1160   10.7500 C.2    88  ILE88       0.2591
      4  O        -12.8480    7.2460    9.5270 O.2    88  ILE88      -0.2718
      5  CB       -11.9830    8.9580   12.1660 C.3    88  ILE88       0.0266
      6  CG1      -11.0250    9.2990   11.0110 C.3    88  ILE88       0.0019
      7  CG2      -11.2680    8.1430   13.2470 C.3    88  ILE88       0.0020
      8  CD1       -9.8570   10.1690   11.4480 C.3    88  ILE88       0.0001
      9  N        -12.8070    5.9000   11.2890 N.am   89  GLN89      -0.1979
     10  CA       -12.5230    4.7550   10.4220 C.3    89  GLN89       0.1601
     11  C        -12.7380    3.4330   11.1640 C.2    89  GLN89       0.2287
     12  O        -12.8050    3.4250   12.3910 O.2    89  GLN89      -0.2864
     13  CB       -11.0790    4.7790    9.8920 C.3    89  GLN89       0.0394
     14  CG       -10.0100    4.7900   10.9990 C.3    89  GLN89       0.0908
     15  CD        -9.1890    3.5200   10.9960 C.2    89  GLN89       0.2608
     16  OE1       -9.7160    2.4750   11.3390 O.2    89  GLN89      -0.2717
     17  NE2       -7.9240    3.5570   10.6140 N.am   89  GLN89      -0.0878
     18  N        -11.2630   -0.9060   10.9810 N.3    91  HIS91      -0.1241
     19  CA       -10.3460   -1.8490   10.3400 C.3    91  HIS91       0.1621
     20  C        -10.4240   -3.1680   11.1040 C.2    91  HIS91       0.2264
     21  O        -11.0890   -3.2110   12.1420 O.2    91  HIS91      -0.2867
     22  CB        -8.9020   -1.3090   10.2880 C.3    91  HIS91       0.0745
     23  CG        -8.3990   -1.0830   11.6890 C.ar   91  HIS91       0.0817
     24  ND1       -8.5590    0.1290   12.3250 N.ar   91  HIS91      -0.2268
     25  CD2       -7.7820   -1.8960   12.5860 C.ar   91  HIS91       0.1154
     26  CE1       -8.0520    0.0710   13.5450 C.ar   91  HIS91       0.1986
     27  NE2       -7.5790   -1.1510   13.7210 N.ar   91  HIS91      -0.2212
     28  N         -8.1540   -6.8760   12.4750 N.3    93  HIS93      -0.1241
     29  CA        -6.9490   -7.6810   12.6420 C.3    93  HIS93       0.1621
     30  C         -7.3550   -9.1440   12.4580 C.2    93  HIS93       0.2264
     31  O         -8.4360   -9.5000   12.9660 O.2    93  HIS93      -0.2867
     32  CB        -6.2950   -7.4540   14.0230 C.3    93  HIS93       0.0745
     33  CG        -6.0430   -6.0000   14.3020 C.ar   93  HIS93       0.0817
     34  ND1       -4.7890   -5.4450   14.1280 N.ar   93  HIS93      -0.2268
     35  CD2       -6.8560   -4.9870   14.6910 C.ar   93  HIS93       0.1154
     36  CE1       -4.8420   -4.1480   14.4330 C.ar   93  HIS93       0.1986
     37  NE2       -6.0840   -3.8380   14.7650 N.ar   93  HIS93      -0.2212
     38  N        -12.1250   -3.0840   14.8900 N.3   116  HIS116     -0.1241
     39  CA       -11.8860   -1.8700   15.6720 C.3   116  HIS116      0.1621
     40  C        -12.5670   -0.6950   14.9910 C.2   116  HIS116      0.2264
     41  O        -12.2140   -0.3800   13.8440 O.2   116  HIS116     -0.2867
     42  CB       -10.3840   -1.5810   15.7910 C.3   116  HIS116      0.0745
     43  CG        -9.6990   -2.5650   16.6780 C.ar  116  HIS116      0.0817
     44  ND1       -8.3420   -2.7840   16.6890 N.ar  116  HIS116     -0.2268
     45  CD2      -10.2450   -3.4020   17.6060 C.ar  116  HIS116      0.1154
     46  CE1       -8.0610   -3.7130   17.5940 C.ar  116  HIS116      0.1986
     47  NE2       -9.2040   -4.1020   18.1560 N.ar  116  HIS116     -0.2212
     48  N        -12.8190    3.1520   15.3030 N.3   118  VAL118     -0.1245
     49  CA       -12.0040    4.1620   15.9570 C.3   118  VAL118      0.1561
     50  C        -12.7060    5.5140   15.9900 C.2   118  VAL118      0.2260
     51  O        -13.1220    5.9830   14.9210 O.2   118  VAL118     -0.2867
     52  CB       -10.6650    4.3010   15.2030 C.3   118  VAL118      0.0252
     53  CG1       -9.7880    5.3850   15.8430 C.3   118  VAL118      0.0019
     54  CG2       -9.9410    2.9650   15.1490 C.3   118  VAL118      0.0019
     55  N         -8.2770   14.9040   14.8780 N.3   127  PHE127     -0.1241
     56  CA        -7.7450   13.6100   15.2710 C.3   127  PHE127      0.1605
     57  C         -6.2980   13.7100   15.7540 C.2   127  PHE127      0.2264
     58  O         -5.9130   13.0320   16.7220 O.2   127  PHE127     -0.2867
     59  CB        -7.8430   12.6280   14.0920 C.3   127  PHE127      0.0534
     60  CG        -7.2480   11.2640   14.4080 C.ar  127  PHE127     -0.0203
     61  CD1       -8.0300   10.3190   15.0600 C.ar  127  PHE127     -0.0042
     62  CD2       -5.9370   10.9320   14.0520 C.ar  127  PHE127     -0.0042
     63  CE1       -7.4990    9.0810   15.3640 C.ar  127  PHE127     -0.0003
     64  CE2       -5.4020    9.7010   14.3810 C.ar  127  PHE127     -0.0003
     65  CZ        -6.1900    8.7770   15.0470 C.ar  127  PHE127     -0.0000
     66  N         -5.0060   12.3570   19.5610 N.3   131  VAL131     -0.1245
     67  CA        -4.1200   11.2340   19.8990 C.3   131  VAL131      0.1561
     68  C         -3.0380   11.6230   20.9130 C.2   131  VAL131      0.2260
     69  O         -2.3520   10.7580   21.4640 O.2   131  VAL131     -0.2867
     70  CB        -3.3980   10.5860   18.6890 C.3   131  VAL131      0.0252
     71  CG1       -4.3720    9.8730   17.7760 C.3   131  VAL131      0.0019
     72  CG2       -2.5850   11.6200   17.9180 C.3   131  VAL131      0.0019
     73  N        -12.0230    3.3420   21.2340 N.3   139  VAL139     -0.1245
     74  CA       -12.0660    2.3340   20.1580 C.3   139  VAL139      0.1561
     75  C        -13.0650    1.2690   20.5800 C.2   139  VAL139      0.2260
     76  O        -12.9020    0.7590   21.6860 O.2   139  VAL139     -0.2867
     77  CB       -10.6980    1.7020   19.8680 C.3   139  VAL139      0.0252
     78  CG1      -10.8470    0.6370   18.7770 C.3   139  VAL139      0.0019
     79  CG2       -9.7000    2.7710   19.4620 C.3   139  VAL139      0.0019
     80  N         -3.0890    2.7320   21.3570 N.3   194  LEU194     -0.1231
     81  CA        -3.0590    2.2260   19.9800 C.3   194  LEU194      0.1693
     82  C         -2.3130    0.8910   19.9900 C.2   194  LEU194      0.2593
     83  O         -1.3410    0.7300   20.7620 O.2   194  LEU194     -0.2718
     84  CB        -2.3810    3.2020   19.0160 C.3   194  LEU194      0.0284
     85  CG        -3.0650    4.5840   18.9580 C.3   194  LEU194      0.0019
     86  CD1       -2.2580    5.5180   18.0710 C.3   194  LEU194      0.0001
     87  CD2       -4.4940    4.4970   18.4610 C.3   194  LEU194      0.0001
     88  N         -2.7600   -0.0770   19.1870 N.am  195  THR195     -0.1939
     89  CA        -2.0480   -1.3540   19.1630 C.3   195  THR195      0.2028
     90  C         -1.0890   -1.4170   17.9700 C.2   195  THR195      0.2643
     91  O         -0.4780   -2.4640   17.7550 O.2   195  THR195     -0.2714
     92  CB        -2.9740   -2.5730   19.0830 C.3   195  THR195      0.1808
     93  OG1       -3.6820   -2.5590   17.8450 O.3   195  THR195     -0.2208
     94  CG2       -4.0030   -2.4970   20.2170 C.3   195  THR195      0.0379
     95  N         -0.9800   -0.3470   17.1910 N.am  196  THR196     -0.1937
     96  CA         0.0990   -0.2870   16.2040 C.3   196  THR196      0.2013
     97  C          0.8940    0.9920   16.4690 C.2   196  THR196      0.2484
     98  O          0.3490    1.9130   17.0960 O.2   196  THR196     -0.2729
     99  CB        -0.3200   -0.2370   14.7160 C.3   196  THR196      0.1807
    100  OG1       -1.0740    0.9610   14.4760 O.3   196  THR196     -0.2208
    101  CG2       -1.1990   -1.4120   14.3400 C.3   196  THR196      0.0379
    102  N          2.1440    1.0580   16.0220 N.am  197  PRO197     -0.2715
    103  CA         2.8620    2.3380   16.1420 C.3   197  PRO197      0.1521
    104  C          2.0610    3.5020   15.6020 C.2   197  PRO197      0.2440
    105  O          1.3590    3.3400   14.5740 O.2   197  PRO197     -0.2731
    106  CB         4.1050    2.0780   15.2690 C.3   197  PRO197      0.0310
    107  CG         4.3480    0.6120   15.4970 C.3   197  PRO197      0.0237
    108  CD         2.9650   -0.0080   15.4430 C.3   197  PRO197      0.0939
    109  N          2.0830    4.6720   16.2180 N.am  198  PRO198     -0.2727
    110  CA         2.9870    5.0640   17.2980 C.3   198  PRO198      0.1402
    111  C          2.6180    4.6420   18.7180 C.2   198  PRO198      0.2269
    112  O          3.2980    5.1020   19.6400 O.2   198  PRO198     -0.2865
    113  CB         2.9630    6.6060   17.1910 C.3   198  PRO198      0.0296
    114  CG         1.5960    6.9110   16.6910 C.3   198  PRO198      0.0237
    115  CD         1.1820    5.7720   15.8030 C.3   198  PRO198      0.0939
    116  N        -10.6100    1.8580   25.7890 N.3   205  TRP205     -0.1241
    117  CA       -11.0540    0.6690   25.0810 C.3   205  TRP205      0.1605
    118  C        -12.4200    0.2290   25.5910 C.2   205  TRP205      0.2264
    119  O        -12.6280    0.1530   26.7980 O.2   205  TRP205     -0.2867
    120  CB       -10.0270   -0.4620   25.2410 C.3   205  TRP205      0.0550
    121  CG        -8.8950   -0.3090   24.2500 C.ar  205  TRP205      0.0003
    122  CD1       -7.6730    0.2680   24.4320 C.ar  205  TRP205      0.0946
    123  CD2       -8.9140   -0.7700   22.8800 C.ar  205  TRP205      0.0152
    124  NE1       -6.9350    0.1980   23.2630 N.ar  205  TRP205     -0.2442
    125  CE2       -7.6760   -0.4340   22.3030 C.ar  205  TRP205      0.0810
    126  CE3       -9.8770   -1.4310   22.1060 C.ar  205  TRP205      0.0012
    127  CZ2       -7.3440   -0.7270   20.9800 C.ar  205  TRP205      0.0191
    128  CZ3       -9.5520   -1.7290   20.7950 C.ar  205  TRP205      0.0001
    129  CH2       -8.3060   -1.3760   20.2630 C.ar  205  TRP205      0.0015
@<TRIPOS>BOND
     1     4     3    2
     2    13    10    1
     3    13    14    1
     4    22    19    1
     5    22    23    1
     6    19    18    1
     7    19    20    1
     8    10    11    1
     9    10     9    1
    10    17    15   am
    11     3     9   am
    12     3     2    1
    13    15    14    1
    14    15    16    2
    15     6     8    1
    16     6     5    1
    17    20    21    2
    18    11    12    2
    19     2     5    1
    20     2     1    1
    21    23    24   ar
    22    23    25   ar
    23     5     7    1
    24    24    26   ar
    25    30    29    1
    26    30    31    2
    27    28    29    1
    28    25    27   ar
    29    29    32    1
    30    26    27   ar
    31    41    40    2
    32    32    33    1
    33    62    64   ar
    34    62    60   ar
    35    59    60    1
    36    59    56    1
    37    34    33   ar
    38    34    36   ar
    39    33    35   ar
    40   101    99    1
    41    64    65   ar
    42    60    61   ar
    43    36    37   ar
    44   100    99    1
    45   105   104    2
    46    35    37   ar
    47    99    96    1
    48    55    56    1
    49    38    39    1
    50    51    50    2
    51    40    39    1
    52    65    63   ar
    53    61    63   ar
    54    54    52    1
    55    52    53    1
    56    52    49    1
    57   106   107    1
    58   106   103    1
    59    56    57    1
    60    48    49    1
    61   108   107    1
    62   108   102    1
    63   104   103    1
    64   104   109   am
    65    39    42    1
    66    57    58    2
    67    42    43    1
    68   115   109    1
    69   115   114    1
    70    49    50    1
    71   102   103    1
    72   102    97   am
    73    96    97    1
    74    96    95    1
    75   109   110    1
    76    97    98    2
    77    43    44   ar
    78    43    45   ar
    79    44    46   ar
    80   114   113    1
    81   113   110    1
    82    95    90   am
    83   110   111    1
    84    46    47   ar
    85    45    47   ar
    86    91    90    2
    87    71    70    1
    88    93    92    1
    89    72    70    1
    90    90    89    1
    91    86    85    1
    92    87    85    1
    93    70    67    1
    94   111   112    2
    95    78    77    1
    96    85    84    1
    97    84    81    1
    98    92    89    1
    99    92    94    1
   100    89    88    1
   101    88    82   am
   102    79    77    1
   103    66    67    1
   104    77    74    1
   105    67    68    1
   106    81    82    1
   107    81    80    1
   108    82    83    2
   109    74    75    1
   110    74    73    1
   111   129   128   ar
   112   129   127   ar
   113    75    76    2
   114   128   126   ar
   115    68    69    2
   116   127   125   ar
   117   126   123   ar
   118   125   123   ar
   119   125   124   ar
   120   123   121   ar
   121   124   122   ar
   122   121   122   ar
   123   121   120    1
   124   117   120    1
   125   117   118    1
   126   117   116    1
   127   118   119    2
