@<TRIPOS>MOLECULE
tmp/3da2A00.pdb
 166 164 0 0 0
SMALL
GASTEIGER

@<TRIPOS>ATOM
      1  N          3.6710   27.9140   13.3800 N.3     7  TRP7       -0.1241
      2  CA         3.9570   26.7260   12.5550 C.3     7  TRP7        0.1605
      3  C          2.6610   26.0100   12.1230 C.2     7  TRP7        0.2264
      4  O          1.6100   26.1850   12.7050 O.2     7  TRP7       -0.2867
      5  CB         4.8780   25.7460   13.3120 C.3     7  TRP7        0.0550
      6  CG         4.2060   25.1410   14.5300 C.ar    7  TRP7        0.0003
      7  CD1        4.1650   25.6830   15.7770 C.ar    7  TRP7        0.0946
      8  CD2        3.4300   23.9240   14.5970 C.ar    7  TRP7        0.0152
      9  NE1        3.4320   24.8850   16.6200 N.ar    7  TRP7       -0.2442
     10  CE2        2.9660   23.8010   15.9260 C.ar    7  TRP7        0.0810
     11  CE3        3.1000   22.9220   13.6720 C.ar    7  TRP7        0.0012
     12  CZ2        2.1950   22.7170   16.3570 C.ar    7  TRP7        0.0191
     13  CZ3        2.3380   21.8440   14.1010 C.ar    7  TRP7        0.0001
     14  CH2        1.8930   21.7500   15.4330 C.ar    7  TRP7        0.0015
     15  N         -3.3320   13.1960   26.7080 N.3    94  GLN94      -0.1245
     16  CA        -3.8920   13.7850   25.4720 C.3    94  GLN94       0.1566
     17  C         -3.9770   12.7770   24.3330 C.2    94  GLN94       0.2260
     18  O         -3.1580   11.8740   24.2220 O.2    94  GLN94      -0.2867
     19  CB        -3.0170   14.9840   25.0340 C.3    94  GLN94       0.0367
     20  CG        -3.7520   16.0820   24.2630 C.3    94  GLN94       0.0905
     21  CD        -2.9500   17.3950   24.2110 C.2    94  GLN94       0.2608
     22  OE1       -1.7150   17.3790   24.2620 O.2    94  GLN94      -0.2717
     23  NE2       -3.6530   18.5290   24.1210 N.am   94  GLN94      -0.0878
     24  N         -4.4630   12.7870   20.0200 N.3    96  HIS96      -0.1241
     25  CA        -4.3950   13.5200   18.7410 C.3    96  HIS96       0.1621
     26  C         -4.7000   12.5850   17.5510 C.2    96  HIS96       0.2264
     27  O         -4.7010   11.3540   17.6970 O.2    96  HIS96      -0.2867
     28  CB        -2.9970   14.1300   18.5600 C.3    96  HIS96       0.0745
     29  CG        -2.6080   15.0760   19.6540 C.ar   96  HIS96       0.0817
     30  ND1       -1.9350   14.6740   20.7890 N.ar   96  HIS96      -0.2268
     31  CD2       -2.8170   16.4050   19.7960 C.ar   96  HIS96       0.1154
     32  CE1       -1.7370   15.7180   21.5770 C.ar   96  HIS96       0.1986
     33  NE2       -2.2690   16.7800   21.0010 N.ar   96  HIS96      -0.2212
     34  N         -3.6690   12.3610   13.2080 N.3    98  HIS98      -0.1241
     35  CA        -2.9870   12.8710   12.0260 C.3    98  HIS98       0.1621
     36  C         -3.5680   12.1950   10.8060 C.2    98  HIS98       0.2264
     37  O         -3.8980   11.0150   10.8370 O.2    98  HIS98      -0.2867
     38  CB        -1.4710   12.6260   12.1110 C.3    98  HIS98       0.0745
     39  CG        -0.8390   13.3190   13.2550 C.ar   98  HIS98       0.0817
     40  ND1       -0.4130   14.6240   13.1830 N.ar   98  HIS98      -0.2268
     41  CD2       -0.6120   12.9140   14.5230 C.ar   98  HIS98       0.1154
     42  CE1        0.0540   14.9950   14.3610 C.ar   98  HIS98       0.1986
     43  NE2       -0.0780   13.9840   15.1960 N.ar   98  HIS98      -0.2212
     44  N         -2.5390    9.2490   18.0170 N.3   121  HIS121     -0.1241
     45  CA        -1.5200    9.3130   19.0550 C.3   121  HIS121      0.1621
     46  C         -2.1200    9.4950   20.4360 C.2   121  HIS121      0.2264
     47  O         -2.8870   10.4290   20.6700 O.2   121  HIS121     -0.2867
     48  CB        -0.4980   10.4370   18.7860 C.3   121  HIS121      0.0745
     49  CG         0.3270   10.2030   17.5720 C.ar  121  HIS121      0.0817
     50  ND1        0.9950   11.2100   16.9120 N.ar  121  HIS121     -0.2268
     51  CD2        0.5820    9.0650   16.8880 C.ar  121  HIS121      0.1154
     52  CE1        1.6140   10.7000   15.8650 C.ar  121  HIS121      0.1986
     53  NE2        1.3780    9.4020   15.8260 N.ar  121  HIS121     -0.2212
     54  N         -0.9180   10.2620   24.1150 N.3   123  VAL123     -0.1245
     55  CA         0.2430   10.8630   24.7830 C.3   123  VAL123      0.1561
     56  C          0.1770   10.7220   26.3170 C.2   123  VAL123      0.2260
     57  O         -0.8490   11.0570   26.9240 O.2   123  VAL123     -0.2867
     58  CB         0.3590   12.3460   24.4160 C.3   123  VAL123      0.0252
     59  CG1        1.6940   12.9690   25.0020 C.3   123  VAL123      0.0019
     60  CG2        0.2230   12.4940   22.8960 C.3   123  VAL123      0.0019
     61  N          3.6740   16.9520   33.2850 N.3   133  PHE133     -0.1227
     62  CA         3.8600   16.8220   31.8410 C.3   133  PHE133      0.1736
     63  C          4.9560   17.7410   31.2790 C.2   133  PHE133      0.2595
     64  O          5.8420   17.3010   30.5410 O.2   133  PHE133     -0.2718
     65  CB         2.5200   17.0540   31.1160 C.3   133  PHE133      0.0547
     66  CG         2.6130   16.9340   29.6290 C.ar  133  PHE133     -0.0202
     67  CD1        2.7690   15.6890   29.0320 C.ar  133  PHE133     -0.0042
     68  CD2        2.5660   18.0580   28.8250 C.ar  133  PHE133     -0.0042
     69  CE1        2.8700   15.5590   27.6700 C.ar  133  PHE133     -0.0003
     70  CE2        2.6610   17.9370   27.4370 C.ar  133  PHE133     -0.0003
     71  CZ         2.8250   16.6790   26.8640 C.ar  133  PHE133     -0.0000
     72  N          4.8850   19.0180   31.6390 N.am  134  VAL134     -0.1980
     73  CA         5.8610   20.0220   31.2100 C.3   134  VAL134      0.1595
     74  C          7.2970   19.5810   31.5260 C.2   134  VAL134      0.2287
     75  O          8.1760   19.6690   30.6560 O.2   134  VAL134     -0.2864
     76  CB         5.5500   21.4360   31.8970 C.3   134  VAL134      0.0276
     77  CG1        6.7120   22.4040   31.7740 C.3   134  VAL134      0.0022
     78  CG2        4.3010   22.0520   31.3060 C.3   134  VAL134      0.0022
     79  N          8.3010   16.3700   29.4770 N.3   137  ALA137     -0.1231
     80  CA         8.4740   16.6000   28.0410 C.3   137  ALA137      0.1694
     81  C          9.9180   16.9050   27.5780 C.2   137  ALA137      0.2592
     82  O         10.2210   16.7960   26.3950 O.2   137  ALA137     -0.2718
     83  CB         7.4540   17.6950   27.5290 C.3   137  ALA137      0.0304
     84  N         10.7770   17.2960   28.5060 N.am  138  HIS138     -0.1976
     85  CA        12.1700   17.6220   28.2270 C.3   138  HIS138      0.1656
     86  C         13.1420   16.5710   28.7740 C.2   138  HIS138      0.2291
     87  O         14.3300   16.8360   28.8800 O.2   138  HIS138     -0.2864
     88  CB        12.5080   19.0060   28.8360 C.3   138  HIS138      0.0771
     89  CG        11.6800   20.1290   28.2780 C.ar  138  HIS138      0.0820
     90  ND1       10.3310   20.2680   28.5450 N.ar  138  HIS138     -0.2267
     91  CD2       12.0050   21.1560   27.4520 C.ar  138  HIS138      0.1154
     92  CE1        9.8640   21.3300   27.9140 C.ar  138  HIS138      0.1986
     93  NE2       10.8590   21.8900   27.2440 N.ar  138  HIS138     -0.2212
     94  N          8.1870   10.9400   28.1460 N.3   143  LEU143     -0.1245
     95  CA         6.9280   10.6980   27.4560 C.3   143  LEU143      0.1561
     96  C          6.8800    9.3350   26.7910 C.2   143  LEU143      0.2260
     97  O          7.9000    8.7710   26.3900 O.2   143  LEU143     -0.2867
     98  CB         6.6960   11.7940   26.3900 C.3   143  LEU143      0.0270
     99  CG         6.8380   13.2670   26.8370 C.3   143  LEU143      0.0019
    100  CD1        6.6060   14.1980   25.5920 C.3   143  LEU143      0.0001
    101  CD2        5.8910   13.6290   28.0280 C.3   143  LEU143      0.0001
    102  N          4.3140    7.6900   23.7570 N.3   145  VAL145     -0.1245
    103  CA         3.1900    7.9070   22.8500 C.3   145  VAL145      0.1561
    104  C          2.8230    6.6130   22.1950 C.2   145  VAL145      0.2260
    105  O          3.6610    5.9840   21.5790 O.2   145  VAL145     -0.2867
    106  CB         3.4620    8.9420   21.7430 C.3   145  VAL145      0.0252
    107  CG1        2.2310    9.0130   20.8220 C.3   145  VAL145      0.0019
    108  CG2        3.7400   10.3110   22.3380 C.3   145  VAL145      0.0019
    109  N          8.5250   14.2010   19.7290 N.3   200  LEU200     -0.1231
    110  CA         7.2640   14.7470   19.2860 C.3   200  LEU200      0.1693
    111  C          7.3380   14.9630   17.7770 C.2   200  LEU200      0.2593
    112  O          8.4050   15.2910   17.2180 O.2   200  LEU200     -0.2718
    113  CB         6.9420   16.0620   20.0160 C.3   200  LEU200      0.0284
    114  CG         6.8370   16.0410   21.5350 C.3   200  LEU200      0.0019
    115  CD1        6.7620   17.5000   22.1020 C.3   200  LEU200      0.0001
    116  CD2        5.6620   15.2020   21.9590 C.3   200  LEU200      0.0001
    117  N          6.1970   14.7760   17.1290 N.am  201  THR201     -0.1939
    118  CA         6.0740   14.9250   15.6800 C.3   201  THR201      0.2028
    119  C          5.6090   16.3160   15.2500 C.2   201  THR201      0.2642
    120  O          5.4180   16.5960   14.0710 O.2   201  THR201     -0.2714
    121  CB         5.1610   13.8620   15.0690 C.3   201  THR201      0.1808
    122  OG1        3.8080   14.0200   15.5560 O.3   201  THR201     -0.2208
    123  CG2        5.7160   12.4760   15.3150 C.3   201  THR201      0.0379
    124  N          5.4290   17.1760   16.2330 N.am  202  VAL202     -0.1963
    125  CA         5.0120   18.5510   16.0540 C.3   202  VAL202      0.1712
    126  C          5.9830   19.4110   16.8620 C.2   202  VAL202      0.2458
    127  O          6.5320   18.9400   17.8640 O.2   202  VAL202     -0.2730
    128  CB         3.5420   18.8150   16.5990 C.3   202  VAL202      0.0289
    129  CG1        2.5420   17.9730   15.8680 C.3   202  VAL202      0.0023
    130  CG2        3.4330   18.5740   18.1500 C.3   202  VAL202      0.0023
    131  N          6.1950   20.6690   16.4400 N.am  203  PRO203     -0.2716
    132  CA         6.9270   21.6210   17.3030 C.3   203  PRO203      0.1521
    133  C          6.3970   21.5550   18.7130 C.2   203  PRO203      0.2440
    134  O          5.1930   21.4220   18.9080 O.2   203  PRO203     -0.2731
    135  CB         6.6660   22.9620   16.6370 C.3   203  PRO203      0.0310
    136  CG         6.5820   22.6120   15.1510 C.3   203  PRO203      0.0237
    137  CD         5.8160   21.2730   15.1540 C.3   203  PRO203      0.0939
    138  N          7.2900   21.5630   19.7080 N.am  204  PRO204     -0.2727
    139  CA         8.7240   21.7670   19.6020 C.3   204  PRO204      0.1402
    140  C          9.6750   20.5660   19.5400 C.2   204  PRO204      0.2269
    141  O         10.8850   20.8140   19.5100 O.2   204  PRO204     -0.2865
    142  CB         9.0060   22.4300   20.9570 C.3   204  PRO204      0.0296
    143  CG         8.0870   21.6420   21.9120 C.3   204  PRO204      0.0237
    144  CD         6.8400   21.4930   21.1190 C.3   204  PRO204      0.0939
    145  N         10.4970   17.7950   20.7480 N.3   206  LEU206     -0.1245
    146  CA        11.3790   17.3520   21.8310 C.3   206  LEU206      0.1561
    147  C         11.6420   15.8540   21.7280 C.2   206  LEU206      0.2260
    148  O         10.7110   15.0560   21.4670 O.2   206  LEU206     -0.2867
    149  CB        10.7880   17.7060   23.2140 C.3   206  LEU206      0.0270
    150  CG        10.5350   19.2130   23.4480 C.3   206  LEU206      0.0019
    151  CD1        9.6450   19.4770   24.6740 C.3   206  LEU206      0.0001
    152  CD2       11.8760   20.0530   23.5080 C.3   206  LEU206      0.0001
    153  N          8.2950    5.8110   21.6220 N.3   211  TRP211     -0.1241
    154  CA         7.2350    5.4760   20.6610 C.3   211  TRP211      0.1605
    155  C          6.8440    4.0110   20.7690 C.2   211  TRP211      0.2264
    156  O          7.7120    3.1620   20.8640 O.2   211  TRP211     -0.2867
    157  CB         7.6690    5.8230   19.2200 C.3   211  TRP211      0.0550
    158  CG         7.4390    7.2550   18.9560 C.ar  211  TRP211      0.0003
    159  CD1        8.3610    8.2790   19.0420 C.ar  211  TRP211      0.0946
    160  CD2        6.1870    7.8640   18.6330 C.ar  211  TRP211      0.0152
    161  NE1        7.7520    9.4660   18.7770 N.ar  211  TRP211     -0.2442
    162  CE2        6.4180    9.2480   18.5200 C.ar  211  TRP211      0.0810
    163  CE3        4.8830    7.3690   18.4250 C.ar  211  TRP211      0.0012
    164  CZ2        5.3890   10.1530   18.2190 C.ar  211  TRP211      0.0191
    165  CZ3        3.8870    8.2520   18.0850 C.ar  211  TRP211      0.0001
    166  CH2        4.1460    9.6430   17.9940 C.ar  211  TRP211      0.0015
@<TRIPOS>BOND
     1    36    37    2
     2    36    35    1
     3    35    38    1
     4    35    34    1
     5    38    39    1
     6     3     2    1
     7     3     4    2
     8     2     5    1
     9     2     1    1
    10    40    39   ar
    11    40    42   ar
    12    39    41   ar
    13     5     6    1
    14    11    13   ar
    15    11     8   ar
    16   120   119    2
    17    13    14   ar
    18    42    43   ar
    19    41    43   ar
    20     6     8   ar
    21     6     7   ar
    22     8    10   ar
    23   121   123    1
    24   121   122    1
    25   121   118    1
    26   136   137    1
    27   136   135    1
    28   137   131    1
    29   119   118    1
    30   119   124   am
    31    14    12   ar
    32   118   117    1
    33     7     9   ar
    34    53    52   ar
    35    53    51   ar
    36    52    50   ar
    37   129   128    1
    38    10    12   ar
    39    10     9   ar
    40   125   124    1
    41   125   128    1
    42   125   126    1
    43   131   126   am
    44   131   132    1
    45   128   130    1
    46   135   132    1
    47   126   127    2
    48    51    49   ar
    49    50    49   ar
    50   117   111   am
    51   112   111    2
    52   132   133    1
    53    26    27    2
    54    26    25    1
    55    49    48    1
    56   111   110    1
    57   166   165   ar
    58   166   164   ar
    59    44    45    1
    60   165   163   ar
    61   164   162   ar
    62   163   160   ar
    63   162   160   ar
    64   162   161   ar
    65    28    25    1
    66    28    29    1
    67   160   158   ar
    68   133   134    2
    69   133   138   am
    70    25    24    1
    71   161   159   ar
    72    48    45    1
    73   158   159   ar
    74   158   157    1
    75    45    46    1
    76   157   154    1
    77   110   109    1
    78   110   113    1
    79   141   140    2
    80   140   139    1
    81   139   138    1
    82   139   142    1
    83    29    31   ar
    84    29    30   ar
    85   138   144    1
    86    31    33   ar
    87   113   114    1
    88    46    47    2
    89   154   155    1
    90   154   153    1
    91   145   146    1
    92   155   156    2
    93    30    32   ar
    94   107   106    1
    95   142   143    1
    96    33    32   ar
    97   144   143    1
    98   148   147    2
    99   114   116    1
   100   114   115    1
   101   105   104    2
   102   147   146    1
   103   106   108    1
   104   106   103    1
   105   146   149    1
   106   104   103    1
   107   103   102    1
   108    60    58    1
   109   149   150    1
   110   150   152    1
   111   150   151    1
   112    54    55    1
   113    23    21   am
   114    21    22    2
   115    21    20    1
   116    18    17    2
   117    20    19    1
   118    17    16    1
   119    58    55    1
   120    58    59    1
   121    55    56    1
   122    19    16    1
   123    16    15    1
   124   100    99    1
   125    56    57    2
   126    98    99    1
   127    98    95    1
   128    97    96    2
   129    82    81    2
   130    96    95    1
   131    99   101    1
   132    71    70   ar
   133    71    69   ar
   134    93    91   ar
   135    93    92   ar
   136    70    68   ar
   137    91    89   ar
   138    95    94    1
   139    83    80    1
   140    81    80    1
   141    81    84   am
   142    69    67   ar
   143    92    90   ar
   144    80    79    1
   145    85    84    1
   146    85    86    1
   147    85    88    1
   148    89    90   ar
   149    89    88    1
   150    86    87    2
   151    68    66   ar
   152    67    66   ar
   153    66    65    1
   154    64    63    2
   155    75    74    2
   156    65    62    1
   157    73    74    1
   158    73    72    1
   159    73    76    1
   160    63    72   am
   161    63    62    1
   162    78    76    1
   163    77    76    1
   164    62    61    1
