@<TRIPOS>MOLECULE
tmp/3da6A00.pdb
 216 199 0 0 0
SMALL
GASTEIGER

@<TRIPOS>ATOM
      1  N        -28.8850    7.6670  -35.5820 N.3    25  ILE25      -0.1231
      2  CA       -28.4500    7.1980  -34.2540 C.3    25  ILE25       0.1692
      3  C        -28.2700    8.3110  -33.2200 C.2    25  ILE25       0.2593
      4  O        -28.2310    9.5050  -33.5540 O.2    25  ILE25      -0.2718
      5  CB       -27.0940    6.4450  -34.2500 C.3    25  ILE25       0.0266
      6  CG1      -25.9490    7.4110  -34.5710 C.3    25  ILE25       0.0019
      7  CG2      -27.1340    5.1810  -35.0900 C.3    25  ILE25       0.0020
      8  CD1      -24.5620    6.7970  -34.8570 C.3    25  ILE25       0.0001
      9  N        -28.1500    7.8830  -31.9580 N.am   26  GLY26      -0.1942
     10  CA       -27.7800    8.7500  -30.8360 C.3    26  GLY26       0.2014
     11  C        -28.8090    9.8240  -30.5420 C.2    26  GLY26       0.2639
     12  O        -29.9310    9.7810  -31.0940 O.2    26  GLY26      -0.2714
     13  N        -28.4190   10.7880  -29.6920 N.am   27  SER27      -0.1949
     14  CA       -29.2200   12.0000  -29.4410 C.3    27  SER27       0.1924
     15  C        -28.8400   13.2210  -30.3080 C.2    27  SER27       0.2314
     16  O        -27.9250   13.9870  -29.9680 O.2    27  SER27      -0.2863
     17  CB       -29.2190   12.3720  -27.9440 C.3    27  SER27       0.2116
     18  OG       -30.4870   12.8790  -27.5110 O.3    27  SER27      -0.2180
     19  N        -26.4720   17.8370  -33.9030 N.3    29  GLY29      -0.1225
     20  CA       -26.3350   17.4380  -35.2920 C.3    29  GLY29       0.1811
     21  C        -26.8810   16.0480  -35.4180 C.2    29  GLY29       0.2280
     22  O        -27.0060   15.2960  -34.4270 O.2    29  GLY29      -0.2866
     23  N        -26.6500   12.3820  -36.7060 N.3    31  VAL31      -0.1245
     24  CA       -25.5800   11.4530  -36.8520 C.3    31  VAL31       0.1561
     25  C        -26.2540   10.2150  -37.4040 C.2    31  VAL31       0.2260
     26  O        -27.3670    9.8570  -36.9480 O.2    31  VAL31      -0.2867
     27  CB       -24.8450   11.1720  -35.5030 C.3    31  VAL31       0.0252
     28  CG1      -23.7760   10.2000  -35.7240 C.3    31  VAL31       0.0019
     29  CG2      -24.2070   12.4260  -34.9270 C.3    31  VAL31       0.0019
     30  N        -19.8940    6.2640  -37.9930 N.3    44  ALA44      -0.1245
     31  CA       -20.9550    7.2010  -37.7140 C.3    44  ALA44       0.1562
     32  C        -20.5930    8.4830  -38.4810 C.2    44  ALA44       0.2260
     33  O        -19.4030    8.8530  -38.6020 O.2    44  ALA44      -0.2867
     34  CB       -21.1140    7.4320  -36.2020 C.3    44  ALA44       0.0290
     35  N        -21.5930   12.4590  -38.9520 N.3    46  LYS46      -0.1245
     36  CA       -22.4280   13.6650  -38.5470 C.3    46  LYS46       0.1561
     37  C        -22.4400   14.7450  -39.6500 C.2    46  LYS46       0.2260
     38  O        -21.3860   15.0890  -40.2220 O.2    46  LYS46      -0.2867
     39  CB       -21.9320   14.1870  -37.1980 C.3    46  LYS46       0.0271
     40  CG       -22.3800   15.5890  -36.6210 C.3    46  LYS46       0.0035
     41  CD       -22.2580   15.4690  -35.0810 C.3    46  LYS46       0.0206
     42  CE       -22.0090   16.7100  -34.3340 C.3    46  LYS46       0.1093
     43  NZ       -21.8170   16.3950  -32.9220 N.3    46  LYS46      -0.1314
     44  N        -22.9590   18.5420  -40.2670 N.3    48  LEU48      -0.1245
     45  CA       -23.0660   19.9140  -39.7940 C.3    48  LEU48       0.1561
     46  C        -23.8150   20.7730  -40.8690 C.2    48  LEU48       0.2260
     47  O        -23.3730   20.9060  -42.0220 O.2    48  LEU48      -0.2867
     48  CB       -21.7230   20.5040  -39.5260 C.3    48  LEU48       0.0270
     49  CG       -20.6030   19.6980  -38.8360 C.3    48  LEU48       0.0019
     50  CD1      -19.6440   20.6670  -38.3190 C.3    48  LEU48       0.0001
     51  CD2      -21.1180   18.9140  -37.7020 C.3    48  LEU48       0.0001
     52  N        -16.5830   27.0530  -32.8230 N.3    60  ARG60      -0.1231
     53  CA       -16.4830   25.6810  -32.3200 C.3    60  ARG60       0.1694
     54  C        -16.2470   24.6670  -33.3880 C.2    60  ARG60       0.2591
     55  O        -15.4100   23.7800  -33.2230 O.2    60  ARG60      -0.2718
     56  CB       -17.7150   25.2690  -31.4950 C.3    60  ARG60       0.0321
     57  CG       -17.3690   24.0110  -30.6230 C.3    60  ARG60       0.0489
     58  CD       -18.4640   22.9460  -30.4590 C.3    60  ARG60       0.2205
     59  NE       -18.0860   21.9130  -29.4740 N.pl3  60  ARG60      -0.0865
     60  CZ       -17.9430   22.1000  -28.1390 C.cat  60  ARG60       0.5346
     61  NH1      -18.1430   23.2980  -27.5640 N.pl3  60  ARG60       0.1354
     62  NH2      -17.6010   21.0770  -27.3550 N.pl3  60  ARG60       0.1354
     63  N        -16.9580   24.7670  -34.5060 N.am   61  ALA61      -0.1980
     64  CA       -16.5950   23.8900  -35.6100 C.3    61  ALA61       0.1597
     65  C        -15.1620   24.1030  -36.1350 C.2    61  ALA61       0.2287
     66  O        -14.3540   23.1400  -36.3440 O.2    61  ALA61      -0.2864
     67  CB       -17.5970   24.0450  -36.7730 C.3    61  ALA61       0.0319
     68  N        -12.7470   22.8290  -33.5710 N.3    64  GLU64      -0.1231
     69  CA       -12.6990   21.4150  -33.3800 C.3    64  GLU64       0.1699
     70  C        -12.1050   20.7130  -34.5670 C.2    64  GLU64       0.2592
     71  O        -11.3660   19.7540  -34.3800 O.2    64  GLU64      -0.2718
     72  CB       -14.0450   20.7940  -32.8630 C.3    64  GLU64       0.0402
     73  CG       -14.3810   21.3950  -31.4340 C.3    64  GLU64       0.1161
     74  CD       -15.0640   20.4310  -30.4790 C.2    64  GLU64       0.3649
     75  OE1      -15.1240   19.2440  -30.8510 O.co2  64  GLU64      -0.2457
     76  OE2      -15.5670   20.8650  -29.3760 O.co2  64  GLU64      -0.2457
     77  N        -12.3410   21.2340  -35.7700 N.am   65  LEU65      -0.1980
     78  CA       -11.6910   20.6900  -36.9770 C.3    65  LEU65       0.1596
     79  C        -10.1640   20.9130  -36.9780 C.2    65  LEU65       0.2287
     80  O         -9.4130   20.0330  -37.3850 O.2    65  LEU65      -0.2864
     81  CB       -12.3020   21.2540  -38.2600 C.3    65  LEU65       0.0297
     82  CG       -13.5690   20.7260  -38.9180 C.3    65  LEU65       0.0022
     83  CD1      -13.8220   21.5530  -40.2010 C.3    65  LEU65       0.0001
     84  CD2      -13.4080   19.2500  -39.2590 C.3    65  LEU65       0.0001
     85  N         -8.7320   18.5180  -34.2630 N.3    68  MET68      -0.1245
     86  CA        -8.7520   17.0920  -34.4790 C.3    68  MET68       0.1570
     87  C         -7.5140   16.7610  -35.2110 C.2    68  MET68       0.2261
     88  O         -6.8190   15.8100  -34.8310 O.2    68  MET68      -0.2867
     89  CB        -9.9840   16.5580  -35.2060 C.3    68  MET68       0.0387
     90  CG       -10.8410   15.5830  -34.3180 C.3    68  MET68       0.0595
     91  SD       -12.5320   16.1060  -34.6560 S.3    68  MET68      -0.1393
     92  CE       -13.4690   16.0080  -33.1210 C.3    68  MET68       0.0692
     93  N        -11.1910   11.2470  -30.0650 N.3    77  ILE77      -0.1301
     94  CA       -11.7480   11.0010  -31.3880 C.3    77  ILE77       0.1246
     95  C        -10.7420   11.3080  -32.4560 C.3    77  ILE77       0.2009
     96  O         -9.8410   12.2310  -32.3090 O.3    77  ILE77      -0.2188
     97  CB       -12.9970   11.9390  -31.5990 C.3    77  ILE77       0.0202
     98  CG1      -13.7240   11.7290  -32.9520 C.3    77  ILE77       0.0015
     99  CG2      -12.6020   13.3770  -31.4030 C.3    77  ILE77       0.0016
    100  CD1      -14.8100   12.8390  -33.1230 C.3    77  ILE77       0.0000
    101  N        -11.1200   11.5830  -36.8560 N.3    79  LEU79      -0.1245
    102  CA       -12.0180   11.5490  -37.9710 C.3    79  LEU79       0.1561
    103  C        -11.4440   10.6110  -38.9870 C.2    79  LEU79       0.2260
    104  O        -10.1940   10.5590  -39.1620 O.2    79  LEU79      -0.2867
    105  CB       -12.2450   12.9660  -38.5000 C.3    79  LEU79       0.0270
    106  CG       -13.0130   13.8230  -37.4600 C.3    79  LEU79       0.0019
    107  CD1      -13.5210   15.0420  -38.1000 C.3    79  LEU79       0.0001
    108  CD2      -14.2420   12.9950  -36.8980 C.3    79  LEU79       0.0001
    109  N        -18.7840   14.7290  -40.9350 N.3    97  LEU97      -0.1245
    110  CA       -17.6120   14.2300  -40.1650 C.3    97  LEU97       0.1561
    111  C        -17.8560   12.7500  -40.0150 C.2    97  LEU97       0.2260
    112  O        -18.9840   12.3550  -39.6690 O.2    97  LEU97      -0.2867
    113  CB       -17.5770   14.8550  -38.7420 C.3    97  LEU97       0.0270
    114  CG       -17.6960   16.3990  -38.7030 C.3    97  LEU97       0.0019
    115  CD1      -17.7470   16.8580  -37.2780 C.3    97  LEU97       0.0001
    116  CD2      -16.5700   17.0330  -39.4340 C.3    97  LEU97       0.0001
    117  N        -16.5450    9.1060  -38.3180 N.3    99  MET99      -0.1230
    118  CA       -15.6810    8.3670  -37.3760 C.3    99  MET99       0.1702
    119  C        -16.1380    6.9190  -37.2420 C.2    99  MET99       0.2592
    120  O        -17.2210    6.5210  -37.7250 O.2    99  MET99      -0.2718
    121  CB       -15.6970    9.0290  -35.9550 C.3    99  MET99       0.0401
    122  CG       -17.1170    9.0080  -35.3610 C.3    99  MET99       0.0596
    123  SD       -17.2420    9.5360  -33.5950 S.3    99  MET99      -0.1393
    124  CE       -15.8900    8.4160  -32.9180 C.3    99  MET99       0.0692
    125  N        -15.3580    6.1380  -36.5260 N.am  100  GLU100     -0.1966
    126  CA       -15.7020    4.7030  -36.2860 C.3   100  GLU100      0.1733
    127  C        -17.0050    4.6280  -35.5190 C.2   100  GLU100      0.2616
    128  O        -17.1970    5.4230  -34.5870 O.2   100  GLU100     -0.2715
    129  CB       -14.6010    4.0940  -35.4650 C.3   100  GLU100      0.0429
    130  CG       -14.9370    2.8550  -34.6210 C.3   100  GLU100      0.1163
    131  CD       -13.6360    2.2910  -34.0090 C.2   100  GLU100      0.3649
    132  OE1      -12.6640    3.1130  -33.8200 O.co2 100  GLU100     -0.2457
    133  OE2      -13.5920    1.0500  -33.7420 O.co2 100  GLU100     -0.2457
    134  N        -17.8410    3.6410  -35.8230 N.am  101  LEU101     -0.1963
    135  CA       -19.1380    3.5510  -35.1580 C.3   101  LEU101      0.1728
    136  C        -18.8110    2.9100  -33.8300 C.2   101  LEU101      0.2616
    137  O        -18.0780    1.9210  -33.7780 O.2   101  LEU101     -0.2715
    138  CB       -20.0460    2.5980  -35.8760 C.3   101  LEU101      0.0311
    139  CG       -21.4240    2.4720  -35.2390 C.3   101  LEU101      0.0022
    140  CD1      -22.0880    3.8210  -34.9880 C.3   101  LEU101      0.0001
    141  CD2      -22.2820    1.5880  -36.1590 C.3   101  LEU101      0.0001
    142  N        -19.2400    3.5400  -32.7610 N.am  102  MET102     -0.1963
    143  CA       -19.0310    2.8710  -31.5050 C.3   102  MET102      0.1736
    144  C        -20.3280    2.2280  -31.0480 C.2   102  MET102      0.2616
    145  O        -21.3530    2.2750  -31.7670 O.2   102  MET102     -0.2715
    146  CB       -18.4760    3.8630  -30.4950 C.3   102  MET102      0.0427
    147  CG       -17.1890    4.5800  -30.9630 C.3   102  MET102      0.0599
    148  SD       -15.7940    3.5810  -30.6140 S.3   102  MET102     -0.1393
    149  CE       -15.6090    3.7110  -28.7600 C.3   102  MET102      0.0692
    150  N        -20.2990    1.6220  -29.8560 N.am  103  ASP103     -0.1957
    151  CA       -21.4410    0.9060  -29.4580 C.3   103  ASP103      0.1840
    152  C        -22.4910    1.6460  -28.6760 C.2   103  ASP103      0.2622
    153  O        -23.6260    1.2830  -28.7740 O.2   103  ASP103     -0.2715
    154  CB       -21.0610   -0.4160  -28.7780 C.3   103  ASP103      0.1450
    155  CG       -20.4170   -1.4040  -29.7410 C.2   103  ASP103      0.3671
    156  OD1      -20.7830   -1.3660  -30.9250 O.co2 103  ASP103     -0.2456
    157  OD2      -19.5090   -2.1610  -29.3150 O.co2 103  ASP103     -0.2456
    158  N        -22.1140    2.6270  -27.8460 N.am  104  ALA104     -0.1963
    159  CA       -23.0230    3.2720  -26.9120 C.3   104  ALA104      0.1728
    160  C        -22.3620    4.5390  -26.4040 C.2   104  ALA104      0.2616
    161  O        -21.1170    4.6510  -26.4160 O.2   104  ALA104     -0.2715
    162  CB       -23.3310    2.3140  -25.7120 C.3   104  ALA104      0.0334
    163  N        -23.1280    5.4860  -25.9240 N.am  105  ASN105     -0.1972
    164  CA       -22.4800    6.6180  -25.1910 C.3   105  ASN105      0.1688
    165  C        -22.5340    6.3620  -23.7060 C.2   105  ASN105      0.2292
    166  O        -23.0200    5.3010  -23.2580 O.2   105  ASN105     -0.2864
    167  CB       -22.9910    8.0000  -25.5840 C.3   105  ASN105      0.1181
    168  CG       -24.3000    8.2800  -24.9880 C.2   105  ASN105      0.2629
    169  OD1      -24.8170    7.4620  -24.1640 O.2   105  ASN105     -0.2716
    170  ND2      -24.8860    9.3610  -25.3900 N.am  105  ASN105     -0.0877
    171  N        -25.8190    5.9440  -21.3890 N.3   108  GLN108     -0.1245
    172  CA       -26.3790    4.5640  -21.3730 C.3   108  GLN108      0.1566
    173  C        -25.5630    3.6040  -20.4500 C.2   108  GLN108      0.2260
    174  O        -26.0950    2.8100  -19.7010 O.2   108  GLN108     -0.2867
    175  CB       -26.3660    3.9780  -22.8040 C.3   108  GLN108      0.0367
    176  CG       -27.0560    4.8070  -23.9470 C.3   108  GLN108      0.0905
    177  CD       -26.5920    4.3100  -25.3760 C.2   108  GLN108      0.2608
    178  OE1      -25.6920    4.8930  -25.9780 O.2   108  GLN108     -0.2717
    179  NE2      -27.1520    3.1760  -25.8500 N.am  108  GLN108     -0.0878
    180  N        -22.5090   12.5230  -22.5900 N.3   146  SER146     -0.1202
    181  CA       -23.0780   12.4100  -23.9730 C.3   146  SER146      0.2020
    182  C        -21.9330   12.4650  -25.0690 C.2   146  SER146      0.2618
    183  O        -22.0280   11.9140  -26.1610 O.2   146  SER146     -0.2717
    184  CB       -24.0470   13.5270  -24.2490 C.3   146  SER146      0.2103
    185  OG       -23.4720   14.7920  -24.0260 O.3   146  SER146     -0.2182
    186  N        -20.8820   13.1720  -24.7650 N.am  147  ASN147     -0.1974
    187  CA       -19.6740   13.2400  -25.6570 C.3   147  ASN147      0.1688
    188  C        -18.6350   12.2200  -25.3900 C.2   147  ASN147      0.2292
    189  O        -17.4590   12.3390  -25.8560 O.2   147  ASN147     -0.2864
    190  CB       -19.0960   14.6500  -25.6060 C.3   147  ASN147      0.1181
    191  CG       -20.0520   15.6880  -26.1840 C.2   147  ASN147      0.2629
    192  OD1      -20.6710   15.4340  -27.1960 O.2   147  ASN147     -0.2716
    193  ND2      -20.1600   16.8560  -25.5440 N.am  147  ASN147     -0.0877
    194  N        -17.9950    8.0110  -25.7140 N.3   149  VAL149     -0.1301
    195  CA       -18.5850    6.7340  -26.2020 C.3   149  VAL149      0.1246
    196  C        -17.7710    5.5480  -25.9060 C.3   149  VAL149      0.2009
    197  O        -16.4780    5.6410  -25.6970 O.3   149  VAL149     -0.2188
    198  CB       -18.7830    6.7630  -27.7440 C.3   149  VAL149      0.0202
    199  CG1      -19.9470    7.6640  -28.0800 C.3   149  VAL149      0.0016
    200  CG2      -17.5200    7.2910  -28.4720 C.3   149  VAL149      0.0016
    201  N        -15.1410   12.5660  -27.3650 N.3   159  LEU159     -0.1231
    202  CA       -15.4360   13.0190  -28.7560 C.3   159  LEU159      0.1693
    203  C        -15.4150   14.5130  -29.0300 C.2   159  LEU159      0.2592
    204  O        -15.7240   14.9130  -30.1810 O.2   159  LEU159     -0.2718
    205  CB       -16.8430   12.4820  -29.1920 C.3   159  LEU159      0.0284
    206  CG       -16.9060   10.9190  -29.2500 C.3   159  LEU159      0.0019
    207  CD1      -18.1360   10.4430  -29.9240 C.3   159  LEU159      0.0001
    208  CD2      -15.5970   10.3450  -29.9030 C.3   159  LEU159      0.0001
    209  N        -15.1910   15.3360  -28.0030 N.am  160  ASP160     -0.1974
    210  CA       -15.1430   16.8240  -28.2230 C.3   160  ASP160      0.1709
    211  C        -13.9660   17.4470  -27.5070 C.2   160  ASP160      0.2293
    212  O        -13.2340   16.7100  -26.7520 O.2   160  ASP160     -0.2864
    213  CB       -16.4580   17.5390  -27.8510 C.3   160  ASP160      0.1436
    214  CG       -16.6590   17.6590  -26.3840 C.2   160  ASP160      0.3671
    215  OD1      -17.0430   18.7720  -25.9450 O.co2 160  ASP160     -0.2456
    216  OD2      -16.3960   16.6920  -25.6020 O.co2 160  ASP160     -0.2456
@<TRIPOS>BOND
     1    47    46    2
     2   109   110    1
     3    46    45    1
     4    44    45    1
     5    38    37    2
     6    83    82    1
     7   110   111    1
     8   110   113    1
     9   111   112    2
    10    45    48    1
    11    37    36    1
    12    48    49    1
    13   116   114    1
    14    84    82    1
    15   104   103    2
    16   103   102    1
    17    35    36    1
    18    82    81    1
    19    49    50    1
    20    49    51    1
    21   113   114    1
    22   114   115    1
    23    33    32    2
    24    36    39    1
    25   105   102    1
    26   105   106    1
    27    32    31    1
    28   117   118    1
    29    81    78    1
    30   107   106    1
    31    30    31    1
    32   102   101    1
    33   120   119    2
    34    31    34    1
    35   106   108    1
    36    25    26    2
    37    25    24    1
    38    80    79    2
    39   118   119    1
    40   118   121    1
    41   119   125   am
    42    39    40    1
    43    79    78    1
    44    78    77    1
    45    24    23    1
    46    24    27    1
    47    67    64    1
    48    40    41    1
    49   125   126    1
    50    66    65    2
    51   126   127    1
    52   126   129    1
    53   141   139    1
    54    65    64    1
    55   121   122    1
    56   138   139    1
    57   138   135    1
    58   134   127   am
    59   134   135    1
    60    77    70   am
    61    28    27    1
    62    64    63    1
    63     1     2    1
    64   127   128    2
    65    27    29    1
    66   129   130    1
    67    21    20    1
    68    21    22    2
    69   122   123    1
    70    20    19    1
    71   139   140    1
    72    87    88    2
    73    87    86    1
    74    89    86    1
    75    89    90    1
    76   135   136    1
    77     7     5    1
    78    41    42    1
    79     8     6    1
    80    91    90    1
    81    91    92    1
    82   130   131    1
    83     6     5    1
    84    70    71    2
    85    70    69    1
    86    63    54   am
    87    86    85    1
    88    42    43    1
    89     2     5    1
    90     2     3    1
    91   131   132   ar
    92   131   133   ar
    93   136   137    2
    94   136   142   am
    95   123   124    1
    96    68    69    1
    97     4     3    2
    98    54    55    2
    99    54    53    1
   100    69    72    1
   101     3     9   am
   102   100    98    1
   103    98    97    1
   104    72    73    1
   105    52    53    1
   106   142   143    1
   107    95    96    1
   108    95    94    1
   109    53    56    1
   110     9    10    1
   111   145   144    2
   112    97    99    1
   113    97    94    1
   114   143   144    1
   115   143   146    1
   116    56    57    1
   117    73    74    1
   118    94    93    1
   119    12    11    2
   120   144   150   am
   121   147   148    1
   122   147   146    1
   123   156   155   ar
   124    75    74   ar
   125    10    11    1
   126    57    58    1
   127   148   149    1
   128    11    13   am
   129    74    76   ar
   130    58    59    1
   131    15    16    2
   132    15    14    1
   133   204   203    2
   134   207   206    1
   135   208   206    1
   136   150   151    1
   137   155   157   ar
   138   155   154    1
   139    13    14    1
   140    59    60    2
   141   151   154    1
   142   151   152    1
   143    14    17    1
   144   206   205    1
   145   205   202    1
   146   203   202    1
   147   203   209   am
   148   153   152    2
   149   202   201    1
   150   152   158   am
   151   200   198    1
   152   210   209    1
   153   210   213    1
   154   210   211    1
   155    60    61    1
   156    60    62    1
   157   199   198    1
   158    17    18    1
   159   213   214    1
   160   158   159    1
   161   198   195    1
   162   211   212    2
   163   192   191    2
   164   159   160    1
   165   159   162    1
   166   161   160    2
   167   160   163   am
   168   214   215   ar
   169   214   216   ar
   170   195   196    1
   171   195   194    1
   172   191   190    1
   173   191   193   am
   174   183   182    2
   175   178   177    2
   176   163   164    1
   177   196   197    1
   178   189   188    2
   179   179   177   am
   180   187   190    1
   181   187   188    1
   182   187   186    1
   183   167   164    1
   184   167   168    1
   185   170   168   am
   186   177   176    1
   187   164   165    1
   188   182   186   am
   189   182   181    1
   190   168   169    2
   191   184   185    1
   192   184   181    1
   193   181   180    1
   194   176   175    1
   195   165   166    2
   196   175   172    1
   197   171   172    1
   198   172   173    1
   199   173   174    2
