@<TRIPOS>MOLECULE
tmp/3da9B00.pdb
 165 156 0 0 0
SMALL
GASTEIGER

@<TRIPOS>ATOM
      1  N         11.7460    0.8880   10.1640 N.3    17  MET17      -0.1245
      2  CA        11.9390   -0.5130    9.7790 C.3    17  MET17       0.1570
      3  C         13.3330   -0.6520    9.1880 C.2    17  MET17       0.2261
      4  O         13.6950    0.0960    8.2730 O.2    17  MET17      -0.2867
      5  CB        10.9120   -0.9300    8.7150 C.3    17  MET17       0.0387
      6  CG        11.0340   -2.3960    8.3090 C.3    17  MET17       0.0595
      7  SD         9.8790   -2.8780    6.9980 S.3    17  MET17      -0.1393
      8  CE         8.3000   -2.8830    7.8450 C.3    17  MET17       0.0692
      9  N         15.3930   -2.8590    6.8350 N.3    19  PHE19      -0.1241
     10  CA        14.9680   -3.7060    5.7200 C.3    19  PHE19       0.1605
     11  C         16.2010   -4.2610    5.0150 C.2    19  PHE19       0.2264
     12  O         17.1210   -3.5170    4.6620 O.2    19  PHE19      -0.2867
     13  CB        14.1120   -2.8800    4.7570 C.3    19  PHE19       0.0534
     14  CG        13.4560   -3.6780    3.6540 C.ar   19  PHE19      -0.0203
     15  CD1       12.3580   -4.4890    3.9080 C.ar   19  PHE19      -0.0042
     16  CD2       13.9110   -3.5560    2.3480 C.ar   19  PHE19      -0.0042
     17  CE1       11.7370   -5.1910    2.8810 C.ar   19  PHE19      -0.0003
     18  CE2       13.2930   -4.2490    1.3060 C.ar   19  PHE19      -0.0003
     19  CZ        12.2100   -5.0610    1.5730 C.ar   19  PHE19      -0.0000
     20  N         17.9680   -5.7370    1.8780 N.3    21  LYS21      -0.1245
     21  CA        17.8490   -5.5990    0.4200 C.3    21  LYS21       0.1561
     22  C         17.6260   -6.9160   -0.3280 C.2    21  LYS21       0.2260
     23  O         16.7400   -7.0070   -1.1900 O.2    21  LYS21      -0.2867
     24  CB        19.0880   -4.9160   -0.1430 C.3    21  LYS21       0.0271
     25  CG        19.2490   -3.4680    0.2510 C.3    21  LYS21       0.0035
     26  CD        20.3700   -2.8910   -0.5540 C.3    21  LYS21       0.0206
     27  CE        20.7040   -1.4800   -0.1740 C.3    21  LYS21       0.1093
     28  NZ        21.9350   -1.0660   -0.8900 N.3    21  LYS21      -0.1314
     29  N         14.7200   -9.6360    0.2830 N.3    24  GLN24      -0.1231
     30  CA        13.8970   -8.5510    0.8100 C.3    24  GLN24       0.1698
     31  C         13.1440   -9.0570    2.0300 C.2    24  GLN24       0.2592
     32  O         12.2330   -9.8790    1.9130 O.2    24  GLN24      -0.2718
     33  CB        12.9160   -8.0280   -0.2510 C.3    24  GLN24       0.0381
     34  CG        13.5060   -6.9970   -1.2080 C.3    24  GLN24       0.0905
     35  CD        12.4560   -6.0470   -1.8060 C.2    24  GLN24       0.2608
     36  OE1       11.2430   -6.2290   -1.6270 O.2    24  GLN24      -0.2717
     37  NE2       12.9290   -5.0160   -2.5070 N.am   24  GLN24      -0.0878
     38  N         13.5450   -8.5870    3.2110 N.am   25  GLU25      -0.1966
     39  CA        12.9020   -9.0090    4.4490 C.3    25  GLU25       0.1733
     40  C         13.0800   -7.9930    5.5780 C.2    25  GLU25       0.2616
     41  O         13.9810   -7.1510    5.5430 O.2    25  GLU25      -0.2715
     42  CB        13.4200  -10.3760    4.8990 C.3    25  GLU25       0.0429
     43  CG        14.8890  -10.4030    5.2210 C.3    25  GLU25       0.1163
     44  CD        15.3910  -11.7760    5.6340 C.2    25  GLU25       0.3649
     45  OE1       14.6900  -12.7830    5.3750 O.co2  25  GLU25      -0.2457
     46  OE2       16.4950  -11.8440    6.2270 O.co2  25  GLU25      -0.2457
     47  N         12.2020   -8.1050    6.5700 N.am   26  LEU26      -0.1977
     48  CA        12.2790   -7.3120    7.7820 C.3    26  LEU26       0.1596
     49  C         13.5060   -7.7830    8.5200 C.2    26  LEU26       0.2287
     50  O         13.6990   -8.9830    8.7040 O.2    26  LEU26      -0.2864
     51  CB        11.0370   -7.5310    8.6520 C.3    26  LEU26       0.0297
     52  CG        11.0780   -6.9870   10.0920 C.3    26  LEU26       0.0022
     53  CD1       11.0300   -5.4740   10.0790 C.3    26  LEU26       0.0001
     54  CD2        9.9360   -7.5560   10.9500 C.3    26  LEU26       0.0001
     55  N         18.4960   -1.0680    4.1050 N.3    60  LEU60      -0.1245
     56  CA        17.8290    0.2100    3.9490 C.3    60  LEU60       0.1561
     57  C         17.0230    0.5170    5.2140 C.2    60  LEU60       0.2260
     58  O         16.6240   -0.3990    5.9390 O.2    60  LEU60      -0.2867
     59  CB        16.8720    0.1620    2.7640 C.3    60  LEU60       0.0270
     60  CG        17.4750    0.0080    1.3660 C.3    60  LEU60       0.0019
     61  CD1       16.3660   -0.2870    0.3870 C.3    60  LEU60       0.0001
     62  CD2       18.2870    1.2500    0.9720 C.3    60  LEU60       0.0001
     63  N         13.4020    2.2690    6.3550 N.3    62  ARG62      -0.1245
     64  CA        12.0990    2.7230    5.8530 C.3    62  ARG62       0.1563
     65  C         11.3570    3.3920    7.0040 C.2    62  ARG62       0.2260
     66  O         11.0860    2.7640    8.0430 O.2    62  ARG62      -0.2867
     67  CB        11.2820    1.5560    5.2760 C.3    62  ARG62       0.0307
     68  CG        12.0920    0.6800    4.2590 C.3    62  ARG62       0.0489
     69  CD        11.3210   -0.5360    3.8370 C.3    62  ARG62       0.2205
     70  NE        10.1270   -0.2170    3.0460 N.pl3  62  ARG62      -0.0865
     71  CZ         9.4370   -1.1180    2.3500 C.cat  62  ARG62       0.5346
     72  NH1        9.8250   -2.3940    2.3260 N.pl3  62  ARG62       0.1354
     73  NH2        8.3500   -0.7520    1.6830 N.pl3  62  ARG62       0.1354
     74  N          3.2130   -3.4750    7.0950 N.3    68  ARG68      -0.1231
     75  CA         4.4750   -4.2420    7.1360 C.3    68  ARG68       0.1694
     76  C          5.0770   -4.4250    5.7410 C.2    68  ARG68       0.2593
     77  O          6.2400   -4.0760    5.5050 O.2    68  ARG68      -0.2718
     78  CB         4.2650   -5.5900    7.8310 C.3    68  ARG68       0.0321
     79  CG         5.5380   -6.4790    7.9860 C.3    68  ARG68       0.0489
     80  CD         5.2390   -7.7650    8.7450 C.3    68  ARG68       0.2205
     81  NE         4.2970   -8.6210    8.0110 N.pl3  68  ARG68      -0.0865
     82  CZ         4.6440   -9.5590    7.1280 C.cat  68  ARG68       0.5346
     83  NH1        5.9190   -9.7990    6.8670 N.pl3  68  ARG68       0.1354
     84  NH2        3.7000  -10.2660    6.5060 N.pl3  68  ARG68       0.1354
     85  N          4.2730   -4.9350    4.8090 N.am   69  THR69      -0.1939
     86  CA         4.8080   -5.3860    3.5230 C.3    69  THR69       0.2028
     87  C          4.6200   -4.4260    2.3570 C.2    69  THR69       0.2642
     88  O          5.3800   -4.4770    1.3930 O.2    69  THR69      -0.2714
     89  CB         4.2190   -6.7370    3.1120 C.3    69  THR69       0.1808
     90  OG1        2.7880   -6.6330    3.0490 O.3    69  THR69      -0.2208
     91  CG2        4.6240   -7.8180    4.1050 C.3    69  THR69       0.0379
     92  N          3.5970   -3.5720    2.4310 N.am   70  ARG70      -0.1963
     93  CA         3.2770   -2.6600    1.3360 C.3    70  ARG70       0.1729
     94  C          4.3590   -1.6160    1.1370 C.2    70  ARG70       0.2616
     95  O          4.9860   -1.1670    2.1050 O.2    70  ARG70      -0.2715
     96  CB         1.9200   -1.9690    1.5730 C.3    70  ARG70       0.0348
     97  CG         1.7680   -0.6030    0.8840 C.3    70  ARG70       0.0492
     98  CD         0.3440    0.0190    1.0310 C.3    70  ARG70       0.2205
     99  NE         0.2060    1.1250    1.9850 N.pl3  70  ARG70      -0.0865
    100  CZ        -0.5640    1.0870    3.0760 C.cat  70  ARG70       0.5346
    101  NH1       -1.2940   -0.0040    3.3390 N.pl3  70  ARG70       0.1354
    102  NH2       -0.6090    2.1400    3.8990 N.pl3  70  ARG70       0.1354
    103  N          4.5900   -1.2320   -0.1170 N.am   71  TYR71      -0.1974
    104  CA         5.3290   -0.0180   -0.3750 C.3    71  TYR71       0.1639
    105  C          4.3520    1.1750   -0.2890 C.2    71  TYR71       0.2290
    106  O          3.4950    1.3610   -1.1690 O.2    71  TYR71      -0.2864
    107  CB         6.0780   -0.0410   -1.7270 C.3    71  TYR71       0.0560
    108  CG         6.7070    1.3020   -2.0120 C.ar   71  TYR71      -0.0198
    109  CD1        7.8130    1.7440   -1.2800 C.ar   71  TYR71      -0.0009
    110  CD2        6.1490    2.1730   -2.9620 C.ar   71  TYR71      -0.0009
    111  CE1        8.3680    2.9870   -1.5070 C.ar   71  TYR71       0.0417
    112  CE2        6.6940    3.4180   -3.1960 C.ar   71  TYR71       0.0417
    113  CZ         7.7950    3.8260   -2.4660 C.ar   71  TYR71       0.1957
    114  OH         8.3410    5.0620   -2.6930 O.3    71  TYR71      -0.2866
    115  N          4.1500    7.7920   -1.3400 N.3    74  ASN74      -0.1240
    116  CA         3.8270    9.1420   -0.8430 C.3    74  ASN74       0.1653
    117  C          3.7490    9.2620    0.6870 C.2    74  ASN74       0.2266
    118  O          3.3200   10.2970    1.2070 O.2    74  ASN74      -0.2867
    119  CB         2.5020    9.6640   -1.4120 C.3    74  ASN74       0.1155
    120  CG         2.4790    9.7410   -2.9400 C.2    74  ASN74       0.2627
    121  OD1        3.4000    9.2930   -3.6250 O.2    74  ASN74      -0.2716
    122  ND2        1.4010   10.3220   -3.4730 N.am   74  ASN74      -0.0877
    123  N          5.8090    6.6200    3.1950 N.3    76  GLU76      -0.1231
    124  CA         7.1230    6.2130    3.6930 C.3    76  GLU76       0.1699
    125  C          8.2580    6.8700    2.9190 C.2    76  GLU76       0.2592
    126  O          8.0970    7.2780    1.7390 O.2    76  GLU76      -0.2718
    127  CB         7.2480    4.6810    3.7520 C.3    76  GLU76       0.0402
    128  CG         7.3730    3.9730    2.4140 C.3    76  GLU76       0.1161
    129  CD         7.7710    2.5190    2.5690 C.2    76  GLU76       0.3649
    130  OE1        6.9070    1.6490    2.3480 O.co2  76  GLU76      -0.2457
    131  OE2        8.9490    2.2620    2.9150 O.co2  76  GLU76      -0.2457
    132  N          9.3950    7.0110    3.5920 N.am   77  LYS77      -0.1966
    133  CA        10.6280    7.4150    2.9620 C.3    77  LYS77       0.1728
    134  C         11.6690    6.3310    3.2070 C.2    77  LYS77       0.2616
    135  O         11.7750    5.7890    4.3190 O.2    77  LYS77      -0.2715
    136  CB        11.1180    8.7650    3.4910 C.3    77  LYS77       0.0311
    137  CG        10.1870    9.9500    3.1320 C.3    77  LYS77       0.0038
    138  CD         9.9770   10.0590    1.6110 C.3    77  LYS77       0.0206
    139  CE         8.7430   10.9000    1.2470 C.3    77  LYS77       0.1093
    140  NZ         7.4660   10.1070    1.2340 N.3    77  LYS77      -0.1314
    141  N         12.3990    5.9990    2.1530 N.am   78  ILE78      -0.1977
    142  CA        13.4370    4.9780    2.2300 C.3    78  ILE78       0.1596
    143  C         14.7790    5.6830    2.1980 C.2    78  ILE78       0.2287
    144  O         15.0360    6.5220    1.3250 O.2    78  ILE78      -0.2864
    145  CB        13.2830    3.9230    1.1180 C.3    78  ILE78       0.0276
    146  CG1       11.8840    3.3040    1.2120 C.3    78  ILE78       0.0022
    147  CG2       14.3620    2.8400    1.2450 C.3    78  ILE78       0.0022
    148  CD1       11.6000    2.1580    0.2910 C.3    78  ILE78       0.0001
    149  N         19.2010    5.4730    2.7470 N.3    80  MET80      -0.1245
    150  CA        20.3970    4.6430    2.6700 C.3    80  MET80       0.1570
    151  C         21.3140    4.9830    3.8200 C.2    80  MET80       0.2261
    152  O         21.3220    6.1150    4.3150 O.2    80  MET80      -0.2867
    153  CB        21.1490    4.8650    1.3510 C.3    80  MET80       0.0387
    154  CG        20.4530    4.2610    0.1480 C.3    80  MET80       0.0595
    155  SD        21.2480    4.7190   -1.4140 S.3    80  MET80      -0.1393
    156  CE        20.0310    4.0660   -2.5560 C.3    80  MET80       0.0692
    157  N          2.4960  -13.2280   11.1070 N.3   149  GLN149     -0.1245
    158  CA         2.9830  -11.8700   10.8480 C.3   149  GLN149      0.1566
    159  C          1.8210  -10.8620   10.8350 C.2   149  GLN149      0.2260
    160  O          0.7260  -11.1860   10.3540 O.2   149  GLN149     -0.2867
    161  CB         3.6890  -11.8150    9.4980 C.3   149  GLN149      0.0367
    162  CG         4.5370  -13.0530    9.1410 C.3   149  GLN149      0.0905
    163  CD         5.9920  -12.9300    9.5620 C.2   149  GLN149      0.2608
    164  OE1        6.8800  -13.5110    8.9290 O.2   149  GLN149     -0.2717
    165  NE2        6.2500  -12.1710   10.6310 N.am  149  GLN149     -0.0878
@<TRIPOS>BOND
     1   121   120    2
     2   122   120   am
     3   112   110   ar
     4   112   113   ar
     5   110   108   ar
     6   120   119    1
     7   114   113    1
     8   156   155    1
     9    37    35   am
    10   113   111   ar
    11   108   107    1
    12   108   109   ar
    13    35    36    2
    14    35    34    1
    15   107   104    1
    16   111   109   ar
    17   155   154    1
    18   119   116    1
    19   115   116    1
    20    34    33    1
    21    23    22    2
    22   106   105    2
    23    28    27    1
    24   116   117    1
    25    26    27    1
    26    26    25    1
    27   104   105    1
    28   104   103    1
    29    22    21    1
    30    33    30    1
    31    24    25    1
    32    24    21    1
    33   103    94   am
    34   154   153    1
    35    29    30    1
    36   148   146    1
    37    61    60    1
    38    21    20    1
    39   117   118    2
    40    30    31    1
    41    97    98    1
    42    97    96    1
    43    62    60    1
    44    98    99    1
    45   145   146    1
    46   145   147    1
    47   145   142    1
    48    94    93    1
    49    94    95    2
    50   140   139    1
    51   139   138    1
    52    18    19   ar
    53    18    16   ar
    54   144   143    2
    55    93    96    1
    56    93    92    1
    57   153   150    1
    58    60    59    1
    59    88    87    2
    60    19    17   ar
    61   138   137    1
    62    73    71    1
    63   126   125    2
    64    32    31    2
    65    99   100    2
    66    31    38   am
    67   141   142    1
    68   141   134   am
    69   143   142    1
    70    72    71    1
    71    16    14   ar
    72   130   129   ar
    73    71    70    2
    74    87    92   am
    75    87    86    1
    76   128   129    1
    77   128   127    1
    78   129   131   ar
    79   150   149    1
    80   150   151    1
    81    59    56    1
    82    17    15   ar
    83   125   132   am
    84   125   124    1
    85   133   134    1
    86   133   136    1
    87   133   132    1
    88    70    69    1
    89    90    89    1
    90   100   101    1
    91   100   102    1
    92    89    86    1
    93    89    91    1
    94   137   136    1
    95   123   124    1
    96   134   135    2
    97    38    39    1
    98    86    85    1
    99    14    15   ar
   100    14    13    1
   101   124   127    1
   102   151   152    2
   103    69    68    1
   104    56    55    1
   105    56    57    1
   106    68    67    1
   107    39    42    1
   108    39    40    1
   109    12    11    2
   110    13    10    1
   111    85    76   am
   112    42    43    1
   113    11    10    1
   114    57    58    2
   115    43    44    1
   116    67    64    1
   117    45    44   ar
   118    77    76    2
   119    41    40    2
   120    40    47   am
   121    44    46   ar
   122    10     9    1
   123    76    75    1
   124    64    63    1
   125    64    65    1
   126    84    82    1
   127    47    48    1
   128    83    82    1
   129     7     8    1
   130     7     6    1
   131    65    66    2
   132    74    75    1
   133    82    81    2
   134    75    78    1
   135    48    49    1
   136    48    51    1
   137    78    79    1
   138    79    80    1
   139    81    80    1
   140     4     3    2
   141     6     5    1
   142    49    50    2
   143    51    52    1
   144     5     2    1
   145   164   163    2
   146   162   161    1
   147   162   163    1
   148     3     2    1
   149   161   158    1
   150   163   165   am
   151     2     1    1
   152    53    52    1
   153    52    54    1
   154   160   159    2
   155   159   158    1
   156   158   157    1
