@<TRIPOS>MOLECULE
tmp/3da9B01.pdb
 177 177 0 0 0
SMALL
GASTEIGER

@<TRIPOS>ATOM
      1  N         22.4670   -5.9760   18.2250 N.3    43  HIS43      -0.1241
      2  CA        22.3360   -7.3580   17.7670 C.3    43  HIS43       0.1621
      3  C         21.5710   -7.4800   16.4400 C.2    43  HIS43       0.2264
      4  O         21.5650   -8.5360   15.8100 O.2    43  HIS43      -0.2867
      5  CB        21.7290   -8.2710   18.8320 C.3    43  HIS43       0.0745
      6  CG        20.2340   -8.2370   18.9020 C.ar   43  HIS43       0.0817
      7  ND1       19.5500   -7.5230   19.8670 N.ar   43  HIS43      -0.2268
      8  CD2       19.2910   -8.8770   18.1620 C.ar   43  HIS43       0.1154
      9  CE1       18.2500   -7.7100   19.7000 C.ar   43  HIS43       0.1986
     10  NE2       18.0670   -8.5140   18.6630 N.ar   43  HIS43      -0.2212
     11  N         25.7770  -10.0750   15.2130 N.3    47  TYR47      -0.1241
     12  CA        25.5370  -11.1920   16.1300 C.3    47  TYR47       0.1605
     13  C         26.2000  -12.4750   15.5760 C.2    47  TYR47       0.2264
     14  O         25.5630  -13.2780   14.9020 O.2    47  TYR47      -0.2867
     15  CB        24.0500  -11.3990   16.4380 C.3    47  TYR47       0.0534
     16  CG        23.8240  -12.2710   17.6520 C.ar   47  TYR47      -0.0201
     17  CD1       24.2570  -11.8620   18.9240 C.ar   47  TYR47      -0.0009
     18  CD2       23.1960  -13.5100   17.5330 C.ar   47  TYR47      -0.0009
     19  CE1       24.0610  -12.6770   20.0520 C.ar   47  TYR47       0.0417
     20  CE2       23.0000  -14.3410   18.6530 C.ar   47  TYR47       0.0417
     21  CZ        23.4320  -13.9100   19.9110 C.ar   47  TYR47       0.1957
     22  OH        23.2600  -14.7270   21.0100 O.3    47  TYR47      -0.2866
     23  N         24.8450  -16.1340   15.1490 N.3    50  TRP50      -0.1241
     24  CA        23.9000  -16.3780   14.0580 C.3    50  TRP50       0.1605
     25  C         24.4410  -15.9720   12.6960 C.2    50  TRP50       0.2264
     26  O         23.6630  -15.8560   11.7220 O.2    50  TRP50      -0.2867
     27  CB        22.5990  -15.6280   14.3030 C.3    50  TRP50       0.0550
     28  CG        21.8080  -16.1000   15.4730 C.ar   50  TRP50       0.0003
     29  CD1       21.9980  -17.2460   16.2030 C.ar   50  TRP50       0.0946
     30  CD2       20.6540  -15.4560   16.0280 C.ar   50  TRP50       0.0152
     31  NE1       21.0480  -17.3380   17.1950 N.ar   50  TRP50      -0.2442
     32  CE2       20.2080  -16.2550   17.1090 C.ar   50  TRP50       0.0810
     33  CE3       19.9640  -14.2700   15.7280 C.ar   50  TRP50       0.0012
     34  CZ2       19.0960  -15.9110   17.8890 C.ar   50  TRP50       0.0191
     35  CZ3       18.8530  -13.9250   16.5110 C.ar   50  TRP50       0.0001
     36  CH2       18.4340  -14.7470   17.5750 C.ar   50  TRP50       0.0015
     37  N         28.1060   -9.3100   22.8290 N.3    92  TRP92      -0.1241
     38  CA        27.3400  -10.3080   22.1060 C.3    92  TRP92       0.1605
     39  C         27.6850  -11.7180   22.5570 C.2    92  TRP92       0.2264
     40  O         26.9210  -12.6570   22.2920 O.2    92  TRP92      -0.2867
     41  CB        27.5370  -10.1740   20.5950 C.3    92  TRP92       0.0550
     42  CG        28.9630  -10.1460   20.1600 C.ar   92  TRP92       0.0003
     43  CD1       29.7340   -9.0380   19.9430 C.ar   92  TRP92       0.0946
     44  CD2       29.8030  -11.2810   19.8790 C.ar   92  TRP92       0.0152
     45  NE1       31.0080   -9.4110   19.5570 N.ar   92  TRP92      -0.2442
     46  CE2       31.0710  -10.7790   19.4990 C.ar   92  TRP92       0.0810
     47  CE3       29.6050  -12.6710   19.9140 C.ar   92  TRP92       0.0012
     48  CZ2       32.1470  -11.6270   19.1450 C.ar   92  TRP92       0.0191
     49  CZ3       30.6700  -13.5100   19.5670 C.ar   92  TRP92       0.0001
     50  CH2       31.9250  -12.9800   19.1950 C.ar   92  TRP92       0.0015
     51  N         27.9860  -12.8830   25.6780 N.3    94  GLU94      -0.1231
     52  CA        27.3800  -13.3200   26.9230 C.3    94  GLU94       0.1699
     53  C         25.8990  -12.9600   27.1140 C.2    94  GLU94       0.2592
     54  O         25.0330  -13.8490   27.1540 O.2    94  GLU94      -0.2718
     55  CB        28.1830  -12.7900   28.1100 C.3    94  GLU94       0.0402
     56  CG        27.7810  -13.4610   29.4330 C.3    94  GLU94       0.1161
     57  CD        28.1180  -12.6460   30.6730 C.2    94  GLU94       0.3649
     58  OE1       28.9100  -11.6650   30.5920 O.co2  94  GLU94      -0.2457
     59  OE2       27.5750  -13.0000   31.7450 O.co2  94  GLU94      -0.2457
     60  N         25.6090  -11.6660   27.2500 N.am   95  ASN95      -0.1960
     61  CA        24.2880  -11.2560   27.7130 C.3    95  ASN95       0.1819
     62  C         23.6820  -10.0720   26.9690 C.2    95  ASN95       0.2621
     63  O         22.6730   -9.5400   27.4140 O.2    95  ASN95      -0.2715
     64  CB        24.3570  -10.9120   29.2020 C.3    95  ASN95       0.1195
     65  CG        25.3590   -9.8220   29.4870 C.2    95  ASN95       0.2630
     66  OD1       26.0350   -9.3310   28.5720 O.2    95  ASN95      -0.2716
     67  ND2       25.4780   -9.4370   30.7590 N.am   95  ASN95      -0.0877
     68  N         24.2650   -9.6800   25.8370 N.am   96  LEU96      -0.1977
     69  CA        23.7660   -8.4970   25.0850 C.3    96  LEU96       0.1596
     70  C         23.8370   -7.1900   25.8870 C.2    96  LEU96       0.2287
     71  O         23.0720   -6.2470   25.6450 O.2    96  LEU96      -0.2864
     72  CB        22.3420   -8.7010   24.5280 C.3    96  LEU96       0.0297
     73  CG        22.0690   -9.7770   23.4660 C.3    96  LEU96       0.0022
     74  CD1       20.6260   -9.6540   22.8940 C.3    96  LEU96       0.0001
     75  CD2       23.0980   -9.8420   22.3540 C.3    96  LEU96       0.0001
     76  N         15.0950  -15.1990   35.2450 N.3   170  THR170     -0.1203
     77  CA        16.0290  -15.5400   34.1660 C.3   170  THR170      0.1994
     78  C         17.3580  -16.0970   34.6470 C.2   170  THR170      0.2618
     79  O         17.8020  -15.7960   35.7550 O.2   170  THR170     -0.2717
     80  CB        16.3250  -14.3130   33.2550 C.3   170  THR170      0.1784
     81  OG1       17.0940  -14.7320   32.1160 O.3   170  THR170     -0.2211
     82  CG2       17.1080  -13.2140   34.0130 C.3   170  THR170      0.0376
     83  N         18.0070  -16.8770   33.7930 N.am  171  ARG171     -0.1965
     84  CA        19.3560  -17.3460   34.0840 C.3   171  ARG171      0.1729
     85  C         20.4170  -16.4330   33.4790 C.2   171  ARG171      0.2616
     86  O         21.6010  -16.5820   33.7750 O.2   171  ARG171     -0.2715
     87  CB        19.5660  -18.7800   33.5840 C.3   171  ARG171      0.0348
     88  CG        18.6800  -19.8030   34.2920 C.3   171  ARG171      0.0492
     89  CD        18.8150  -21.2010   33.6820 C.3   171  ARG171      0.2205
     90  NE        20.1280  -21.7550   33.9880 N.pl3 171  ARG171     -0.0865
     91  CZ        20.4630  -23.0320   33.8460 C.cat 171  ARG171      0.5346
     92  NH1       19.5930  -23.9100   33.3800 N.pl3 171  ARG171      0.1354
     93  NH2       21.6730  -23.4230   34.1790 N.pl3 171  ARG171      0.1354
     94  N         20.0000  -15.5040   32.6140 N.am  172  ILE172     -0.1977
     95  CA        20.9440  -14.5390   32.0230 C.3   172  ILE172      0.1596
     96  C         21.4020  -13.5500   33.1020 C.2   172  ILE172      0.2287
     97  O         20.5900  -13.1380   33.9540 O.2   172  ILE172     -0.2864
     98  CB        20.2910  -13.7650   30.8130 C.3   172  ILE172      0.0276
     99  CG1       19.8240  -14.7310   29.7030 C.3   172  ILE172      0.0022
    100  CG2       21.2120  -12.6500   30.2780 C.3   172  ILE172      0.0022
    101  CD1       20.9480  -15.4800   28.9350 C.3   172  ILE172      0.0001
    102  N          7.2860   -8.1680   23.2240 N.3   193  ALA193     -0.1231
    103  CA         7.9300   -8.0750   21.9360 C.3   193  ALA193      0.1694
    104  C          8.2780   -9.5000   21.4980 C.2   193  ALA193      0.2592
    105  O          8.3650  -10.3940   22.3270 O.2   193  ALA193     -0.2718
    106  CB         9.1950   -7.2220   22.0460 C.3   193  ALA193      0.0304
    107  N          8.4900   -9.7050   20.2070 N.am  194  CYS194     -0.1956
    108  CA         8.8470  -11.0310   19.6890 C.3   194  CYS194      0.1843
    109  C          9.8070  -10.9010   18.4820 C.2   194  CYS194      0.2625
    110  O         10.1930   -9.7780   18.1280 O.2   194  CYS194     -0.2714
    111  CB         7.5630  -11.7840   19.3440 C.3   194  CYS194      0.0997
    112  SG         7.7660  -13.6000   19.2970 S.3   194  CYS194     -0.0797
    113  N         10.2110  -12.0210   17.8650 N.am  195  GLU195     -0.1977
    114  CA        11.1540  -11.9970   16.7300 C.3   195  GLU195      0.1602
    115  C         10.7980  -10.9320   15.6940 C.2   195  GLU195      0.2287
    116  O          9.6950  -10.9490   15.1500 O.2   195  GLU195     -0.2864
    117  CB        11.2310  -13.3730   16.0280 C.3   195  GLU195      0.0415
    118  CG        12.3160  -13.4240   14.9380 C.3   195  GLU195      0.1163
    119  CD        12.2930  -14.6890   14.0880 C.2   195  GLU195      0.3649
    120  OE1       11.6900  -15.7060   14.5120 O.co2 195  GLU195     -0.2457
    121  OE2       12.8960  -14.6580   12.9870 O.co2 195  GLU195     -0.2457
    122  N         12.9960   -6.6060   17.6710 N.3   198  SER198     -0.1217
    123  CA        14.3110   -6.1820   18.1540 C.3   198  SER198      0.1889
    124  C         14.7210   -4.8510   17.5630 C.2   198  SER198      0.2288
    125  O         14.5440   -4.6100   16.3600 O.2   198  SER198     -0.2866
    126  CB        15.3720   -7.2210   17.7630 C.3   198  SER198      0.2089
    127  OG        15.2180   -8.3920   18.5360 O.3   198  SER198     -0.2183
    128  N         14.2100   -2.5850   22.3280 N.3   218  VAL218     -0.1231
    129  CA        13.8910   -4.0180   22.4200 C.3   218  VAL218      0.1692
    130  C         15.1980   -4.8060   22.2330 C.2   218  VAL218      0.2593
    131  O         15.8210   -4.7140   21.1780 O.2   218  VAL218     -0.2718
    132  CB        12.8560   -4.4450   21.3450 C.3   218  VAL218      0.0266
    133  CG1       12.5560   -5.9370   21.4740 C.3   218  VAL218      0.0020
    134  CG2       11.5460   -3.6000   21.4620 C.3   218  VAL218      0.0020
    135  N         15.5850   -5.5800   23.2550 N.am  219  SER219     -0.1938
    136  CA        16.8680   -6.2720   23.2630 C.3   219  SER219      0.2055
    137  C         16.7290   -7.7890   23.2810 C.2   219  SER219      0.2643
    138  O         17.1430   -8.4330   22.3280 O.2   219  SER219     -0.2714
    139  CB        17.7610   -5.7860   24.4250 C.3   219  SER219      0.2130
    140  OG        19.0520   -6.3640   24.3470 O.3   219  SER219     -0.2179
    141  N         16.1850   -8.3690   24.3470 N.am  220  TRP220     -0.1959
    142  CA        16.1150   -9.8360   24.4260 C.3   220  TRP220      0.1771
    143  C         14.9640  -10.3470   25.2720 C.2   220  TRP220      0.2620
    144  O         14.3120   -9.5890   25.9870 O.2   220  TRP220     -0.2715
    145  CB        17.4590  -10.4210   24.9090 C.3   220  TRP220      0.0590
    146  CG        17.9050  -10.0010   26.2850 C.ar  220  TRP220      0.0006
    147  CD1       18.6400   -8.8990   26.6170 C.ar  220  TRP220      0.0946
    148  CD2       17.6870  -10.7200   27.5110 C.ar  220  TRP220      0.0152
    149  NE1       18.8820   -8.8770   27.9780 N.ar  220  TRP220     -0.2442
    150  CE2       18.3180   -9.9880   28.5460 C.ar  220  TRP220      0.0810
    151  CE3       17.0300  -11.9140   27.8320 C.ar  220  TRP220      0.0012
    152  CZ2       18.2940  -10.4100   29.8930 C.ar  220  TRP220      0.0191
    153  CZ3       16.9980  -12.3290   29.1840 C.ar  220  TRP220      0.0001
    154  CH2       17.6250  -11.5720   30.1860 C.ar  220  TRP220      0.0015
    155  N         14.7010  -11.6420   25.1550 N.am  221  GLY221     -0.1940
    156  CA        13.6500  -12.2870   25.9350 C.3   221  GLY221      0.2014
    157  C         13.8780  -13.7780   25.8810 C.2   221  GLY221      0.2639
    158  O         14.8450  -14.2590   25.2900 O.2   221  GLY221     -0.2714
    159  N         12.9780  -14.5170   26.4830 N.am  222  GLU222     -0.1963
    160  CA        13.0970  -15.9620   26.4660 C.3   222  GLU222      0.1733
    161  C         11.7180  -16.4370   26.0670 C.2   222  GLU222      0.2617
    162  O         10.7890  -16.4250   26.8680 O.2   222  GLU222     -0.2715
    163  CB        13.5220  -16.4750   27.8380 C.3   222  GLU222      0.0429
    164  CG        13.9880  -17.9480   27.8060 C.3   222  GLU222      0.1163
    165  CD        14.2530  -18.5520   29.1880 C.2   222  GLU222      0.3649
    166  OE1       14.3860  -17.7960   30.1940 O.co2 222  GLU222     -0.2457
    167  OE2       14.3420  -19.7990   29.2490 O.co2 222  GLU222     -0.2457
    168  N         11.5880  -16.7950   24.7990 N.am  223  GLY223     -0.1940
    169  CA        10.2830  -16.9670   24.1910 C.3   223  GLY223      0.2014
    170  C          9.6280  -15.6100   24.0100 C.2   223  GLY223      0.2639
    171  O         10.3070  -14.5750   24.0070 O.2   223  GLY223     -0.2714
    172  N          8.3100  -15.6240   23.8640 N.am  224  CYS224     -0.1967
    173  CA         7.5310  -14.4060   23.7030 C.3   224  CYS224      0.1712
    174  C          6.2500  -14.5810   24.4830 C.2   224  CYS224      0.2296
    175  O          5.4920  -15.5340   24.2510 O.2   224  CYS224     -0.2864
    176  CB         7.2040  -14.1390   22.2300 C.3   224  CYS224      0.0983
    177  SG         8.5980  -14.0850   21.0950 S.3   224  CYS224     -0.0798
@<TRIPOS>BOND
     1    26    25    2
     2    25    24    1
     3   121   119   ar
     4    24    27    1
     5    24    23    1
     6   119   120   ar
     7   119   118    1
     8    27    28    1
     9    14    13    2
    10   118   117    1
    11   116   115    2
    12    11    12    1
    13    28    30   ar
    14    28    29   ar
    15    13    12    1
    16   115   114    1
    17    33    30   ar
    18    33    35   ar
    19     4     3    2
    20   117   114    1
    21    30    32   ar
    22    12    15    1
    23    29    31   ar
    24   125   124    2
    25    15    16    1
    26     3     2    1
    27    35    36   ar
    28   114   113    1
    29    32    31   ar
    30    32    34   ar
    31    18    16   ar
    32    18    20   ar
    33   124   123    1
    34    36    34   ar
    35    16    17   ar
    36   122   123    1
    37   126   123    1
    38   126   127    1
    39     2     1    1
    40     2     5    1
    41   113   109   am
    42   110   109    2
    43     8    10   ar
    44     8     6   ar
    45   109   108    1
    46    20    21   ar
    47    10     9   ar
    48     5     6    1
    49     6     7   ar
    50    17    19   ar
    51    48    50   ar
    52    48    46   ar
    53    50    49   ar
    54   112   111    1
    55   112   177    1
    56   111   108    1
    57    46    45   ar
    58    46    44   ar
    59    45    43   ar
    60    49    47   ar
    61   108   107    1
    62     9     7   ar
    63    44    47   ar
    64    44    42   ar
    65    21    19   ar
    66    21    22    1
    67    43    42   ar
    68    42    41    1
    69   107   104   am
    70    41    38    1
    71   177   176    1
    72   131   130    2
    73   132   134    1
    74   132   133    1
    75   132   129    1
    76   104   103    1
    77   104   105    2
    78   103   106    1
    79   103   102    1
    80    38    39    1
    81    38    37    1
    82   176   173    1
    83   130   129    1
    84   130   135   am
    85    40    39    2
    86   128   129    1
    87   138   137    2
    88    75    73    1
    89    74    73    1
    90   135   136    1
    91   136   137    1
    92   136   139    1
    93   137   141   am
    94    73    72    1
    95   173   172    1
    96   173   174    1
    97   172   170   am
    98   171   170    2
    99   170   169    1
   100   169   168    1
   101   175   174    2
   102   140   139    1
   103   141   142    1
   104   142   145    1
   105   142   143    1
   106    72    69    1
   107   168   161   am
   108   145   146    1
   109    69    68    1
   110    69    70    1
   111   155   143   am
   112   155   156    1
   113   143   144    2
   114   158   157    2
   115    71    70    2
   116    51    52    1
   117    68    62   am
   118   157   156    1
   119   157   159   am
   120   161   160    1
   121   161   162    2
   122   146   147   ar
   123   146   148   ar
   124   160   159    1
   125   160   163    1
   126   147   149   ar
   127    52    53    1
   128    52    55    1
   129    62    63    2
   130    62    61    1
   131    53    54    2
   132    53    60   am
   133    60    61    1
   134   148   151   ar
   135   148   150   ar
   136    61    64    1
   137   164   163    1
   138   164   165    1
   139   151   153   ar
   140   149   150   ar
   141    55    56    1
   142   150   152   ar
   143    66    65    2
   144   101    99    1
   145   153   154   ar
   146   165   167   ar
   147   165   166   ar
   148    64    65    1
   149    56    57    1
   150    65    67   am
   151    99    98    1
   152   152   154   ar
   153   100    98    1
   154    58    57   ar
   155    57    59   ar
   156    98    95    1
   157    95    94    1
   158    95    96    1
   159    81    80    1
   160    94    85   am
   161    96    97    2
   162    80    82    1
   163    80    77    1
   164    92    91    1
   165    85    86    2
   166    85    84    1
   167    87    84    1
   168    87    88    1
   169    89    90    1
   170    89    88    1
   171    83    84    1
   172    83    78   am
   173    91    90    2
   174    91    93    1
   175    77    78    1
   176    77    76    1
   177    78    79    2
