@<TRIPOS>MOLECULE
tmp/3daaA00.pdb
 177 167 0 0 0
SMALL
GASTEIGER

@<TRIPOS>ATOM
      1  N         38.1650   10.4250   -0.0480 N.3    31  TYR31      -0.1241
      2  CA        37.8910    8.9860   -0.1050 C.3    31  TYR31       0.1605
      3  C         38.2080    8.3090   -1.4360 C.2    31  TYR31       0.2264
      4  O         38.5120    8.9680   -2.4250 O.2    31  TYR31      -0.2867
      5  CB        36.4180    8.7190    0.2470 C.3    31  TYR31       0.0534
      6  CG        35.4500    9.0450   -0.8710 C.ar   31  TYR31      -0.0201
      7  CD1       35.0680   10.3580   -1.1270 C.ar   31  TYR31      -0.0009
      8  CD2       34.9320    8.0350   -1.6910 C.ar   31  TYR31      -0.0009
      9  CE1       34.1950   10.6660   -2.1700 C.ar   31  TYR31       0.0417
     10  CE2       34.0570    8.3290   -2.7380 C.ar   31  TYR31       0.0417
     11  CZ        33.6930    9.6470   -2.9710 C.ar   31  TYR31       0.1957
     12  OH        32.8250    9.9490   -3.9980 O.3    31  TYR31      -0.2866
     13  N         37.2250    4.3820   -3.8400 N.3    33  VAL33      -0.1245
     14  CA        36.4650    3.1440   -4.0200 C.3    33  VAL33       0.1561
     15  C         37.3280    2.3090   -4.9620 C.2    33  VAL33       0.2260
     16  O         37.7660    2.8110   -5.9920 O.2    33  VAL33      -0.2867
     17  CB        35.0640    3.3740   -4.6560 C.3    33  VAL33       0.0252
     18  CG1       34.4170    2.0410   -5.0020 C.3    33  VAL33       0.0019
     19  CG2       34.1550    4.1410   -3.6970 C.3    33  VAL33       0.0019
     20  N         44.5070    4.1790   -7.3470 N.3    47  HIS47      -0.1241
     21  CA        43.5370    4.6230   -6.3470 C.3    47  HIS47       0.1621
     22  C         44.2080    5.0970   -5.0440 C.2    47  HIS47       0.2264
     23  O         43.8000    6.1030   -4.4580 O.2    47  HIS47      -0.2867
     24  CB        42.4940    3.5380   -6.0800 C.3    47  HIS47       0.0745
     25  CG        41.4000    3.4870   -7.1060 C.ar   47  HIS47       0.0817
     26  ND1       40.4310    4.4620   -7.2070 N.ar   47  HIS47      -0.2268
     27  CD2       41.1140    2.5750   -8.0650 C.ar   47  HIS47       0.1154
     28  CE1       39.5960    4.1530   -8.1830 C.ar   47  HIS47       0.1986
     29  NE2       39.9890    3.0120   -8.7200 N.ar   47  HIS47      -0.2212
     30  N         45.8800    8.4740   -5.6840 N.3    50  ARG50      -0.1245
     31  CA        44.8910    9.5500   -5.6980 C.3    50  ARG50       0.1563
     32  C         44.4190    9.8700   -4.2710 C.2    50  ARG50       0.2260
     33  O         44.2050   11.0370   -3.9450 O.2    50  ARG50      -0.2867
     34  CB        43.6900    9.2210   -6.6080 C.3    50  ARG50       0.0307
     35  CG        42.7670   10.4380   -6.8520 C.3    50  ARG50       0.0489
     36  CD        41.7080   10.1990   -7.9270 C.3    50  ARG50       0.2205
     37  NE        40.7350    9.1760   -7.5400 N.pl3  50  ARG50      -0.0865
     38  CZ        39.7470    8.7420   -8.3170 C.cat  50  ARG50       0.5346
     39  NH1       39.5900    9.2390   -9.5350 N.pl3  50  ARG50       0.1354
     40  NH2       38.9200    7.8000   -7.8840 N.pl3  50  ARG50       0.1354
     41  N         27.4620   22.1740   -7.7500 N.3   138  ARG138     -0.1245
     42  CA        28.5210   21.8600   -6.7960 C.3   138  ARG138      0.1563
     43  C         29.6050   22.9390   -6.6870 C.2   138  ARG138      0.2260
     44  O         29.5830   23.9210   -7.4330 O.2   138  ARG138     -0.2867
     45  CB        29.1380   20.5090   -7.1640 C.3   138  ARG138      0.0307
     46  CG        28.1250   19.3640   -7.1520 C.3   138  ARG138      0.0489
     47  CD        28.7210   18.0770   -7.6980 C.3   138  ARG138      0.2205
     48  NE        29.1980   18.2740   -9.0560 N.pl3 138  ARG138     -0.0865
     49  CZ        30.1700   17.5780   -9.6310 C.cat 138  ARG138      0.5346
     50  NH1       30.7880   16.6100   -8.9730 N.pl3 138  ARG138      0.1354
     51  NH2       30.5530   17.8860  -10.8620 N.pl3 138  ARG138      0.1354
     52  N         38.5660   14.5720   -4.4670 N.3   145  LYS145     -0.1245
     53  CA        37.5290   13.5720   -4.1720 C.3   145  LYS145      0.1561
     54  C         37.2070   13.6450   -2.6770 C.2   145  LYS145      0.2260
     55  O         37.5940   12.7700   -1.8950 O.2   145  LYS145     -0.2867
     56  CB        38.0250   12.1710   -4.5600 C.3   145  LYS145      0.0271
     57  CG        36.9290   11.1040   -4.7360 C.3   145  LYS145      0.0035
     58  CD        37.5130    9.8190   -5.3610 C.3   145  LYS145      0.0206
     59  CE        36.5120    8.6760   -5.4350 C.3   145  LYS145      0.1093
     60  NZ        35.3300    8.9990   -6.2680 N.3   145  LYS145     -0.1314
     61  N         29.6470   15.7370   -0.5450 N.3   149  LEU149     -0.1245
     62  CA        28.9240   15.1340   -1.6570 C.3   149  LEU149      0.1561
     63  C         27.4150   15.4010   -1.7090 C.2   149  LEU149      0.2260
     64  O         26.6820   14.6920   -2.4180 O.2   149  LEU149     -0.2867
     65  CB        29.1660   13.6230   -1.6310 C.3   149  LEU149      0.0270
     66  CG        30.6090   13.1410   -1.7920 C.3   149  LEU149      0.0019
     67  CD1       30.7000   11.6500   -1.5120 C.3   149  LEU149      0.0001
     68  CD2       31.0980   13.4600   -3.1960 C.3   149  LEU149      0.0001
     69  N         25.9110   15.8520   -5.2880 N.3   152  ALA152     -0.1245
     70  CA        25.7760   14.5760   -5.9960 C.3   152  ALA152      0.1562
     71  C         24.6400   13.6880   -5.4530 C.2   152  ALA152      0.2260
     72  O         24.0440   12.9060   -6.1970 O.2   152  ALA152     -0.2867
     73  CB        27.0870   13.8240   -5.9750 C.3   152  ALA152      0.0290
     74  N         30.4750   16.2920  -15.7050 N.3   177  GLU177     -0.1231
     75  CA        30.5750   14.8750  -15.3580 C.3   177  GLU177      0.1699
     76  C         29.2450   14.3910  -14.7740 C.2   177  GLU177      0.2593
     77  O         28.2820   15.1600  -14.6990 O.2   177  GLU177     -0.2718
     78  CB        31.7130   14.6380  -14.3590 C.3   177  GLU177      0.0402
     79  CG        31.5500   15.3490  -13.0210 C.3   177  GLU177      0.1161
     80  CD        32.7280   15.1300  -12.0880 C.2   177  GLU177      0.3649
     81  OE1       33.5190   14.1830  -12.3040 O.co2 177  GLU177     -0.2457
     82  OE2       32.8620   15.9110  -11.1260 O.co2 177  GLU177     -0.2457
     83  N         29.1730   13.1090  -14.4200 N.am  178  GLY178     -0.1942
     84  CA        27.9550   12.5620  -13.8320 C.3   178  GLY178      0.2014
     85  C         28.0150   12.6960  -12.3110 C.2   178  GLY178      0.2640
     86  O         29.0910   12.9690  -11.7490 O.2   178  GLY178     -0.2714
     87  N         26.8820   12.4870  -11.6360 N.am  179  SER179     -0.1935
     88  CA        26.8390   12.6070  -10.1770 C.3   179  SER179      0.2055
     89  C         27.8730   11.7240   -9.4670 C.2   179  SER179      0.2644
     90  O         28.3170   12.0530   -8.3690 O.2   179  SER179     -0.2714
     91  CB        25.4260   12.3700   -9.6340 C.3   179  SER179      0.2130
     92  OG        25.0120   11.0270   -9.7650 O.3   179  SER179     -0.2179
     93  N         28.2650   10.6250  -10.1090 N.am  180  SER180     -0.1935
     94  CA        29.2770    9.7100   -9.5780 C.3   180  SER180      0.2055
     95  C         29.9800    8.9830  -10.7300 C.2   180  SER180      0.2644
     96  O         30.3060    7.7950  -10.6400 O.2   180  SER180     -0.2714
     97  CB        28.6750    8.7050   -8.5780 C.3   180  SER180      0.2130
     98  OG        27.6920    7.8730   -9.1710 O.3   180  SER180     -0.2179
     99  N         30.2680    9.7300  -11.7910 N.am  181  SER181     -0.1935
    100  CA        30.9230    9.1720  -12.9660 C.3   181  SER181      0.2055
    101  C         31.4050   10.2600  -13.9130 C.2   181  SER181      0.2643
    102  O         31.1130   11.4390  -13.7160 O.2   181  SER181     -0.2714
    103  CB        29.9460    8.2660  -13.7280 C.3   181  SER181      0.2130
    104  OG        28.8410    9.0020  -14.2400 O.3   181  SER181     -0.2179
    105  N         32.1930    9.8540  -14.9090 N.am  182  ASN182     -0.1971
    106  CA        32.6720   10.7640  -15.9430 C.3   182  ASN182      0.1688
    107  C         31.8230   10.4490  -17.1760 C.2   182  ASN182      0.2292
    108  O         31.2980    9.3390  -17.3110 O.2   182  ASN182     -0.2864
    109  CB        34.1710   10.5800  -16.2080 C.3   182  ASN182      0.1181
    110  CG        35.0370   11.1470  -15.0770 C.2   182  ASN182      0.2629
    111  OD1       35.7710   10.4170  -14.4130 O.2   182  ASN182     -0.2716
    112  ND2       34.9330   12.4560  -14.8490 N.am  182  ASN182     -0.0877
    113  N         36.2050   15.3310  -11.6030 N.3   201  LEU201     -0.1245
    114  CA        37.1300   14.4360  -10.9250 C.3   201  LEU201      0.1561
    115  C         37.8070   13.6900  -12.0630 C.2   201  LEU201      0.2260
    116  O         37.1270   13.2230  -12.9860 O.2   201  LEU201     -0.2867
    117  CB        36.3930   13.4210  -10.0490 C.3   201  LEU201      0.0270
    118  CG        37.2990   12.3490   -9.4290 C.3   201  LEU201      0.0019
    119  CD1       38.1560   12.9910   -8.3560 C.3   201  LEU201      0.0001
    120  CD2       36.4870   11.2120   -8.8440 C.3   201  LEU201      0.0001
    121  N         38.7410   10.7900  -13.1190 N.3   203  GLY203     -0.1210
    122  CA        38.5160    9.3880  -12.8200 C.3   203  GLY203      0.1956
    123  C         39.6030    8.4150  -13.2290 C.2   203  GLY203      0.2612
    124  O         40.3060    8.6370  -14.2110 O.2   203  GLY203     -0.2717
    125  N         39.7440    7.3380  -12.4600 N.am  204  ILE204     -0.1965
    126  CA        40.7260    6.2950  -12.7450 C.3   204  ILE204      0.1727
    127  C         40.2300    5.5080  -13.9680 C.2   204  ILE204      0.2617
    128  O         41.0090    5.1900  -14.8720 O.2   204  ILE204     -0.2715
    129  CB        40.9240    5.3430  -11.5160 C.3   204  ILE204      0.0290
    130  CG1       41.3950    6.1470  -10.2890 C.3   204  ILE204      0.0022
    131  CG2       41.9110    4.2250  -11.8430 C.3   204  ILE204      0.0023
    132  CD1       42.6430    6.9640  -10.5120 C.3   204  ILE204      0.0001
    133  N         38.9210    5.2550  -14.0090 N.am  205  THR205     -0.1937
    134  CA        38.2910    4.5350  -15.1180 C.3   205  THR205      0.2028
    135  C         38.3820    5.3920  -16.3780 C.2   205  THR205      0.2642
    136  O         38.5880    4.8840  -17.4800 O.2   205  THR205     -0.2714
    137  CB        36.8170    4.2130  -14.8120 C.3   205  THR205      0.1808
    138  OG1       36.7230    3.6060  -13.5120 O.3   205  THR205     -0.2208
    139  CG2       36.2640    3.2380  -15.8470 C.3   205  THR205      0.0379
    140  N         38.2390    6.7010  -16.1930 N.am  206  ARG206     -0.1977
    141  CA        38.3530    7.6610  -17.2800 C.3   206  ARG206      0.1597
    142  C         39.7550    7.5190  -17.8970 C.2   206  ARG206      0.2287
    143  O         39.9040    7.3890  -19.1160 O.2   206  ARG206     -0.2864
    144  CB        38.1620    9.0750  -16.7180 C.3   206  ARG206      0.0334
    145  CG        38.3760   10.2300  -17.6880 C.3   206  ARG206      0.0492
    146  CD        38.5270   11.5370  -16.9060 C.3   206  ARG206      0.2205
    147  NE        38.5770   12.7290  -17.7520 N.pl3 206  ARG206     -0.0865
    148  CZ        39.6880   13.2400  -18.2740 C.cat 206  ARG206      0.5346
    149  NH1       40.8630   12.6580  -18.0690 N.pl3 206  ARG206      0.1354
    150  NH2       39.6220   14.3340  -19.0230 N.pl3 206  ARG206      0.1354
    151  N         31.5610    6.5140  -17.1040 N.3   239  THR239     -0.1203
    152  CA        32.5870    5.6670  -16.4860 C.3   239  THR239      0.1994
    153  C         32.7710    5.9060  -14.9810 C.2   239  THR239      0.2619
    154  O         32.6790    7.0390  -14.5030 O.2   239  THR239     -0.2717
    155  CB        33.9910    5.8410  -17.1690 C.3   239  THR239      0.1784
    156  OG1       34.4670    7.1830  -16.9910 O.3   239  THR239     -0.2211
    157  CG2       33.9320    5.5190  -18.6580 C.3   239  THR239      0.0376
    158  N         33.0140    4.8190  -14.2480 N.am  240  SER240     -0.1937
    159  CA        33.2650    4.8560  -12.8040 C.3   240  SER240      0.2055
    160  C         33.8290    3.4990  -12.3730 C.2   240  SER240      0.2644
    161  O         33.7050    2.5130  -13.0980 O.2   240  SER240     -0.2714
    162  CB        31.9970    5.1930  -12.0100 C.3   240  SER240      0.2130
    163  OG        31.2480    4.0380  -11.6800 O.3   240  SER240     -0.2179
    164  N         34.4530    3.4540  -11.2000 N.am  241  THR241     -0.1936
    165  CA        35.0470    2.2150  -10.6900 C.3   241  THR241      0.2028
    166  C         34.0230    1.0800  -10.6350 C.2   241  THR241      0.2642
    167  O         34.3160   -0.0540  -11.0160 O.2   241  THR241     -0.2714
    168  CB        35.7250    2.4450   -9.3030 C.3   241  THR241      0.1808
    169  OG1       36.8300    3.3460   -9.4640 O.3   241  THR241     -0.2208
    170  CG2       36.2530    1.1460   -8.7230 C.3   241  THR241      0.0379
    171  N         32.7970    1.4150  -10.2550 N.am  242  THR242     -0.1950
    172  CA        31.7370    0.4220  -10.1650 C.3   242  THR242      0.1897
    173  C         30.8950    0.2360  -11.4450 C.2   242  THR242      0.2313
    174  O         30.3590   -0.8470  -11.6730 O.2   242  THR242     -0.2863
    175  CB        30.8300    0.7030   -8.9410 C.3   242  THR242      0.1794
    176  OG1       30.4870    2.0930   -8.9040 O.3   242  THR242     -0.2208
    177  CG2       31.5610    0.3450   -7.6450 C.3   242  THR242      0.0378
@<TRIPOS>BOND
     1   143   142    2
     2   150   148    1
     3   157   155    1
     4   148   149    1
     5   148   147    2
     6   142   141    1
     7   147   146    1
     8   145   146    1
     9   145   144    1
    10   136   135    2
    11   108   107    2
    12   141   144    1
    13   141   140    1
    14   107   106    1
    15   155   156    1
    16   155   152    1
    17   151   152    1
    18   152   153    1
    19   135   140   am
    20   135   134    1
    21   109   106    1
    22   109   110    1
    23   106   105    1
    24   139   137    1
    25    74    75    1
    26    75    76    1
    27    75    78    1
    28   134   137    1
    29   134   133    1
    30   110   112   am
    31   110   111    2
    32   153   154    2
    33   153   158   am
    34   105   101   am
    35   128   127    2
    36   137   138    1
    37    76    77    2
    38    76    83   am
    39    83    84    1
    40    78    79    1
    41   158   159    1
    42   104   103    1
    43   124   123    2
    44   133   127   am
    45   127   126    1
    46   101   102    2
    47   101   100    1
    48    84    85    1
    49   103   100    1
    50   123   122    1
    51   123   125   am
    52   121   122    1
    53   161   160    2
    54    79    80    1
    55   116   115    2
    56   100    99    1
    57   159   160    1
    58   159   162    1
    59   126   125    1
    60   126   129    1
    61   160   164   am
    62    85    86    2
    63    85    87   am
    64    81    80   ar
    65    80    82   ar
    66   115   114    1
    67   162   163    1
    68   131   129    1
    69    99    95   am
    70   174   173    2
    71    87    88    1
    72   113   114    1
    73   129   130    1
    74   173   172    1
    75   164   165    1
    76   167   166    2
    77   114   117    1
    78    51    49    1
    79    95    96    2
    80    95    94    1
    81   165   166    1
    82   165   168    1
    83   166   171   am
    84   132   130    1
    85   171   172    1
    86    88    91    1
    87    88    89    1
    88   172   175    1
    89    93    94    1
    90    93    89   am
    91   117   118    1
    92    92    91    1
    93    49    48    2
    94    49    50    1
    95    94    97    1
    96    39    38    1
    97    89    90    2
    98   169   168    1
    99   118   120    1
   100   118   119    1
   101   168   170    1
   102    98    97    1
   103    48    47    1
   104   175   176    1
   105   175   177    1
   106    29    28   ar
   107    29    27   ar
   108    38    40    1
   109    38    37    2
   110    28    26   ar
   111    27    25   ar
   112    36    37    1
   113    36    35    1
   114    41    42    1
   115    47    46    1
   116    44    43    2
   117    20    21    1
   118    26    25   ar
   119    45    46    1
   120    45    42    1
   121    25    24    1
   122    35    34    1
   123    42    43    1
   124    34    31    1
   125    21    24    1
   126    21    22    1
   127    60    59    1
   128    72    71    2
   129    70    73    1
   130    70    71    1
   131    70    69    1
   132    16    15    2
   133    31    30    1
   134    31    32    1
   135    59    58    1
   136    58    57    1
   137    22    23    2
   138    18    17    1
   139    15    14    1
   140    57    56    1
   141    17    14    1
   142    17    19    1
   143    56    53    1
   144    52    53    1
   145    32    33    2
   146    53    54    1
   147    14    13    1
   148    12    11    1
   149    68    66    1
   150    11    10   ar
   151    11     9   ar
   152    10     8   ar
   153    54    55    2
   154     4     3    2
   155    64    63    2
   156     9     7   ar
   157    66    65    1
   158    66    67    1
   159    63    62    1
   160     8     6   ar
   161    62    65    1
   162    62    61    1
   163     3     2    1
   164     7     6   ar
   165     6     5    1
   166     2     1    1
   167     2     5    1
