@<TRIPOS>MOLECULE
tmp/3dabC00.pdb
 172 166 0 0 0
SMALL
GASTEIGER

@<TRIPOS>ATOM
      1  N         17.9420   31.3210   41.3180 N.3    28  VAL28      -0.1231
      2  CA        17.3720   29.9680   41.2780 C.3    28  VAL28       0.1692
      3  C         16.1480   29.9380   40.3520 C.2    28  VAL28       0.2591
      4  O         15.9500   28.9660   39.6240 O.2    28  VAL28      -0.2718
      5  CB        17.0070   29.4550   42.6860 C.3    28  VAL28       0.0266
      6  CG1       16.1130   28.2260   42.6030 C.3    28  VAL28       0.0020
      7  CG2       18.2650   29.1360   43.4650 C.3    28  VAL28       0.0020
      8  N         15.3420   31.0010   40.3730 N.am   29  LYS29      -0.1980
      9  CA        14.2690   31.1870   39.3890 C.3    29  LYS29       0.1596
     10  C         14.7830   30.9390   37.9740 C.2    29  LYS29       0.2287
     11  O         14.1710   30.1730   37.2140 O.2    29  LYS29      -0.2864
     12  CB        13.6790   32.6000   39.4870 C.3    29  LYS29       0.0298
     13  CG        12.7530   32.9960   38.3600 C.3    29  LYS29       0.0038
     14  CD        12.3330   34.4690   38.4760 C.3    29  LYS29       0.0206
     15  CE        12.3830   35.1880   37.1200 C.3    29  LYS29       0.1093
     16  NZ        13.7740   35.2680   36.5650 N.3    29  LYS29      -0.1314
     17  N         15.9480   27.1940   37.2550 N.3    32  MET32      -0.1230
     18  CA        14.7560   26.3730   37.0720 C.3    32  MET32       0.1702
     19  C         14.0780   26.6490   35.7320 C.2    32  MET32       0.2592
     20  O         13.6780   25.7090   35.0380 O.2    32  MET32      -0.2718
     21  CB        13.7430   26.6070   38.1970 C.3    32  MET32       0.0401
     22  CG        14.2380   26.2610   39.5930 C.3    32  MET32       0.0596
     23  SD        14.7830   24.5560   39.7220 S.3    32  MET32      -0.1393
     24  CE        13.2060   23.7290   39.7330 C.3    32  MET32       0.0692
     25  N         13.9270   27.9310   35.3790 N.am   33  HIS33      -0.1976
     26  CA        13.3390   28.2870   34.0950 C.3    33  HIS33       0.1656
     27  C         14.0460   27.5310   32.9810 C.2    33  HIS33       0.2291
     28  O         13.4090   26.8010   32.2120 O.2    33  HIS33      -0.2864
     29  CB        13.4070   29.8000   33.8290 C.3    33  HIS33       0.0771
     30  CG        13.0690   30.1720   32.4130 C.ar   33  HIS33       0.0820
     31  ND1       11.7730   30.2930   31.9610 N.ar   33  HIS33      -0.2267
     32  CD2       13.8630   30.4230   31.3450 C.ar   33  HIS33       0.1154
     33  CE1       11.7800   30.6040   30.6790 C.ar   33  HIS33       0.1986
     34  NE2       13.0370   30.7020   30.2830 N.ar   33  HIS33      -0.2212
     35  N         16.1790   25.0170   33.1050 N.3    35  LEU35      -0.1231
     36  CA        16.0680   23.5650   33.2430 C.3    35  LEU35       0.1693
     37  C         14.8110   23.0640   32.5700 C.2    35  LEU35       0.2593
     38  O         14.8340   22.0310   31.8900 O.2    35  LEU35      -0.2718
     39  CB        16.0470   23.1360   34.7180 C.3    35  LEU35       0.0284
     40  CG        17.3540   22.5470   35.2240 C.3    35  LEU35       0.0019
     41  CD1       17.3050   22.3420   36.7670 C.3    35  LEU35       0.0001
     42  CD2       17.6390   21.2250   34.5030 C.3    35  LEU35       0.0001
     43  N         13.7270   23.8000   32.7720 N.am   36  GLY36      -0.1942
     44  CA        12.4350   23.4870   32.1890 C.3    36  GLY36       0.2014
     45  C         12.4850   23.6040   30.6790 C.2    36  GLY36       0.2638
     46  O         11.9090   22.7920   29.9730 O.2    36  GLY36      -0.2714
     47  N         13.2040   24.6130   30.1920 N.am   37  GLN37      -0.1977
     48  CA        13.3530   24.8380   28.7440 C.3    37  GLN37       0.1601
     49  C         14.1910   23.7510   28.0680 C.2    37  GLN37       0.2287
     50  O         13.8970   23.3460   26.9410 O.2    37  GLN37      -0.2864
     51  CB        13.9160   26.2460   28.4900 C.3    37  GLN37       0.0394
     52  CG        12.9770   27.3590   28.9460 C.3    37  GLN37       0.0908
     53  CD        11.6170   27.2940   28.2920 C.2    37  GLN37       0.2608
     54  OE1       10.5980   27.1050   28.9630 O.2    37  GLN37      -0.2717
     55  NE2       11.5890   27.4210   26.9740 N.am   37  GLN37      -0.0878
     56  N         14.4970   20.4630   29.1890 N.3    39  ILE39      -0.1231
     57  CA        13.5940   19.2940   29.1610 C.3    39  ILE39       0.1692
     58  C         12.5490   19.3880   28.0320 C.2    39  ILE39       0.2591
     59  O         12.2790   18.4000   27.3290 O.2    39  ILE39      -0.2718
     60  CB        12.8990   19.1540   30.5400 C.3    39  ILE39       0.0266
     61  CG1       13.9090   18.6430   31.5810 C.3    39  ILE39       0.0019
     62  CG2       11.6670   18.2640   30.4650 C.3    39  ILE39       0.0020
     63  CD1       13.4950   18.9500   33.0240 C.3    39  ILE39       0.0001
     64  N         11.9910   20.5820   27.8500 N.am   40  MET40      -0.1979
     65  CA        11.0390   20.8520   26.7730 C.3    40  MET40       0.1605
     66  C         11.6880   20.7130   25.3900 C.2    40  MET40       0.2287
     67  O         11.1290   20.0470   24.5150 O.2    40  MET40      -0.2864
     68  CB        10.3990   22.2420   26.9590 C.3    40  MET40       0.0413
     69  CG         9.2260   22.5630   26.0050 C.3    40  MET40       0.0598
     70  SD         9.8060   23.2230   24.4420 S.3    40  MET40      -0.1393
     71  CE        10.6160   24.7490   24.9360 C.3    40  MET40       0.0692
     72  N         10.1040   15.0070   28.7700 N.3    45  TYR45      -0.1241
     73  CA         8.8600   14.6820   29.4560 C.3    45  TYR45       0.1605
     74  C          8.0660   13.7120   28.6040 C.2    45  TYR45       0.2264
     75  O          8.1320   13.7600   27.3660 O.2    45  TYR45      -0.2867
     76  CB         8.0390   15.9180   29.7840 C.3    45  TYR45       0.0534
     77  CG         7.5660   16.7520   28.5960 C.ar   45  TYR45      -0.0201
     78  CD1        6.3600   16.4780   27.9670 C.ar   45  TYR45      -0.0009
     79  CD2        8.3260   17.8220   28.1190 C.ar   45  TYR45      -0.0009
     80  CE1        5.9120   17.2480   26.8880 C.ar   45  TYR45       0.0417
     81  CE2        7.8870   18.5980   27.0450 C.ar   45  TYR45       0.0417
     82  CZ         6.6890   18.3070   26.4350 C.ar   45  TYR45       0.1957
     83  OH         6.2660   19.0770   25.3760 O.3    45  TYR45      -0.2866
     84  N          2.3870   11.6280   27.2310 N.3    48  GLN48      -0.1245
     85  CA         1.0980   11.2200   27.7690 C.3    48  GLN48       0.1566
     86  C          0.9940   11.5620   29.2540 C.2    48  GLN48       0.2260
     87  O         -0.0390   12.0450   29.7020 O.2    48  GLN48      -0.2867
     88  CB         0.8650    9.7210   27.5390 C.3    48  GLN48       0.0367
     89  CG         1.2250    9.2230   26.1190 C.3    48  GLN48       0.0905
     90  CD         0.1680    9.5220   25.0680 C.2    48  GLN48       0.2608
     91  OE1        0.4130   10.2680   24.1060 O.2    48  GLN48      -0.2717
     92  NE2       -1.0120    8.9260   25.2300 N.am   48  GLN48      -0.0878
     93  N          2.8100   13.9890   31.4260 N.3    50  GLN50      -0.1231
     94  CA         3.8000   15.0520   31.2140 C.3    50  GLN50       0.1698
     95  C          4.5100   15.5090   32.4960 C.2    50  GLN50       0.2592
     96  O          5.4430   16.2990   32.4240 O.2    50  GLN50      -0.2718
     97  CB         3.1750   16.2420   30.4680 C.3    50  GLN50       0.0381
     98  CG         2.4790   15.8390   29.1690 C.3    50  GLN50       0.0905
     99  CD         2.5030   16.9030   28.0780 C.2    50  GLN50       0.2608
    100  OE1        2.8350   18.0710   28.3120 O.2    50  GLN50      -0.2717
    101  NE2        2.1670   16.4880   26.8630 N.am   50  GLN50      -0.0878
    102  N          4.0950   14.9900   33.6480 N.am   51  HIS51      -0.1976
    103  CA         4.8210   15.2230   34.9030 C.3    51  HIS51       0.1656
    104  C          6.0440   14.3020   35.0220 C.2    51  HIS51       0.2291
    105  O          6.9210   14.5480   35.8370 O.2    51  HIS51      -0.2864
    106  CB         3.8870   15.0420   36.1110 C.3    51  HIS51       0.0771
    107  CG         3.4060   13.6350   36.2970 C.ar   51  HIS51       0.0820
    108  ND1        2.2690   13.1520   35.6860 N.ar   51  HIS51      -0.2267
    109  CD2        3.9140   12.6080   37.0160 C.ar   51  HIS51       0.1154
    110  CE1        2.1010   11.8830   36.0190 C.ar   51  HIS51       0.1986
    111  NE2        3.0850   11.5290   36.8260 N.ar   51  HIS51      -0.2212
    112  N          9.5430   12.8700   33.7280 N.3    53  VAL53      -0.1245
    113  CA        10.6950   13.1190   32.8890 C.3    53  VAL53       0.1561
    114  C         11.5490   11.8550   32.8050 C.2    53  VAL53       0.2260
    115  O         11.9530   11.2970   33.8390 O.2    53  VAL53      -0.2867
    116  CB        11.5200   14.3180   33.4210 C.3    53  VAL53       0.0252
    117  CG1       12.7940   14.5330   32.5970 C.3    53  VAL53       0.0019
    118  CG2       10.6750   15.5610   33.4200 C.3    53  VAL53       0.0019
    119  N         12.3780   11.0240   36.7160 N.3    69  PHE69      -0.1241
    120  CA        11.8550   11.6980   37.9170 C.3    69  PHE69       0.1605
    121  C         10.4870   12.3230   37.6140 C.2    69  PHE69       0.2264
    122  O         10.1190   12.5040   36.4560 O.2    69  PHE69      -0.2867
    123  CB        12.8640   12.7140   38.4750 C.3    69  PHE69       0.0534
    124  CG        12.9300   14.0070   37.7030 C.ar   69  PHE69      -0.0203
    125  CD1       12.1720   15.1050   38.0910 C.ar   69  PHE69      -0.0042
    126  CD2       13.7530   14.1190   36.6050 C.ar   69  PHE69      -0.0042
    127  CE1       12.2270   16.3010   37.3810 C.ar   69  PHE69      -0.0003
    128  CE2       13.8350   15.3230   35.8940 C.ar   69  PHE69      -0.0003
    129  CZ        13.0650   16.4060   36.2790 C.ar   69  PHE69      -0.0000
    130  N          7.9830   15.5780   38.1730 N.3    71  VAL71      -0.1231
    131  CA         7.9460   16.9890   38.6090 C.3    71  VAL71       0.1692
    132  C          6.9630   17.1900   39.7740 C.2    71  VAL71       0.2591
    133  O          7.0790   18.1710   40.5000 O.2    71  VAL71      -0.2718
    134  CB         7.7910   18.0720   37.4450 C.3    71  VAL71       0.0266
    135  CG1        7.6610   17.4530   36.0770 C.3    71  VAL71       0.0020
    136  CG2        6.6820   19.1060   37.7390 C.3    71  VAL71       0.0020
    137  N          6.0440   16.2430   39.9850 N.am   72  LYS72      -0.1980
    138  CA         5.1570   16.2730   41.1720 C.3    72  LYS72       0.1596
    139  C          5.8140   15.7700   42.4760 C.2    72  LYS72       0.2287
    140  O          5.2980   16.0440   43.5620 O.2    72  LYS72      -0.2864
    141  CB         3.8660   15.4930   40.9080 C.3    72  LYS72       0.0298
    142  CG         3.0610   16.0930   39.7400 C.3    72  LYS72       0.0038
    143  CD         1.9180   15.1610   39.4150 C.3    72  LYS72       0.0206
    144  CE         0.6300   15.8070   39.0050 C.3    72  LYS72       0.1093
    145  NZ        -0.5260   14.8290   38.8990 N.3    72  LYS72      -0.1314
    146  N          9.5560   16.1400   43.2340 N.3    74  PRO74      -0.2116
    147  CA        10.8340   16.5950   42.6770 C.3    74  PRO74       0.1372
    148  C         12.1060   16.4480   43.5360 C.2    74  PRO74       0.2244
    149  O         13.1240   17.0210   43.1880 O.2    74  PRO74      -0.2868
    150  CB        10.5540   18.0730   42.3880 C.3    74  PRO74       0.0268
    151  CG         9.6130   18.4680   43.4660 C.3    74  PRO74       0.0207
    152  CD         8.7300   17.2760   43.6820 C.3    74  PRO74       0.0892
    153  N         15.6410   15.9900   41.9310 N.3    77  LEU77      -0.1231
    154  CA        16.0640   17.1890   41.2140 C.3    77  LEU77       0.1693
    155  C         16.7580   18.1600   42.1830 C.2    77  LEU77       0.2592
    156  O         17.8200   18.7090   41.8860 O.2    77  LEU77      -0.2718
    157  CB        14.8600   17.8710   40.5800 C.3    77  LEU77       0.0284
    158  CG        15.1900   19.1100   39.7500 C.3    77  LEU77       0.0019
    159  CD1       16.0830   18.7050   38.5990 C.3    77  LEU77       0.0001
    160  CD2       13.9040   19.7580   39.2840 C.3    77  LEU77       0.0001
    161  N         16.1430   18.3580   43.3450 N.am   78  TYR78      -0.1976
    162  CA        16.7190   19.2450   44.3520 C.3    78  TYR78       0.1639
    163  C         18.0010   18.6720   44.9510 C.2    78  TYR78       0.2290
    164  O         18.9320   19.4240   45.2240 O.2    78  TYR78      -0.2864
    165  CB        15.6820   19.6280   45.4150 C.3    78  TYR78       0.0560
    166  CG        14.6790   20.6140   44.8670 C.ar   78  TYR78      -0.0198
    167  CD1       13.5340   20.1850   44.2260 C.ar   78  TYR78      -0.0009
    168  CD2       14.8960   21.9830   44.9720 C.ar   78  TYR78      -0.0009
    169  CE1       12.6290   21.0860   43.7050 C.ar   78  TYR78       0.0417
    170  CE2       13.9890   22.8970   44.4590 C.ar   78  TYR78       0.0417
    171  CZ        12.8670   22.4460   43.8220 C.ar   78  TYR78       0.1957
    172  OH        11.9660   23.3450   43.3070 O.3    78  TYR78      -0.2866
@<TRIPOS>BOND
     1    91    90    2
     2    70    71    1
     3    70    69    1
     4    67    66    2
     5    90    92   am
     6    90    89    1
     7    83    82    1
     8    66    65    1
     9    69    68    1
    10    89    88    1
    11    82    80   ar
    12    82    81   ar
    13    65    68    1
    14    65    64    1
    15   101    99   am
    16    80    78   ar
    17    50    49    2
    18    55    53   am
    19    81    79   ar
    20    84    85    1
    21    59    58    2
    22    75    74    2
    23    88    85    1
    24    85    86    1
    25    64    58   am
    26    78    77   ar
    27    58    57    1
    28    49    48    1
    29    99   100    2
    30    99    98    1
    31    79    77   ar
    32    53    52    1
    33    53    54    2
    34    51    48    1
    35    51    52    1
    36    77    76    1
    37    74    73    1
    38    48    47    1
    39    72    73    1
    40    57    56    1
    41    57    60    1
    42    98    97    1
    43    86    87    2
    44    73    76    1
    45    46    45    2
    46    47    45   am
    47    34    33   ar
    48    34    32   ar
    49    62    60    1
    50    97    94    1
    51    60    61    1
    52    45    44    1
    53    33    31   ar
    54    94    93    1
    55    94    95    1
    56    32    30   ar
    57    61    63    1
    58    38    37    2
    59    31    30   ar
    60    44    43    1
    61    28    27    2
    62    30    29    1
    63    96    95    2
    64    95   102   am
    65    37    43   am
    66    37    36    1
    67   117   116    1
    68   114   113    1
    69   114   115    2
    70   113   116    1
    71   113   112    1
    72    27    26    1
    73    35    36    1
    74    36    39    1
    75   118   116    1
    76   102   103    1
    77    29    26    1
    78    26    25    1
    79    42    40    1
    80    39    40    1
    81   103   104    1
    82   103   106    1
    83   104   105    2
    84    20    19    2
    85    40    41    1
    86    25    19   am
    87   108   110   ar
    88   108   107   ar
    89    19    18    1
    90   128   129   ar
    91   128   126   ar
    92   110   111   ar
    93   135   134    1
    94   106   107    1
    95   129   127   ar
    96   107   109   ar
    97   122   121    2
    98    16    15    1
    99   126   124   ar
   100   119   120    1
   101   111   109   ar
   102    18    17    1
   103    18    21    1
   104    15    14    1
   105    11    10    2
   106   127   125   ar
   107   134   136    1
   108   134   131    1
   109   121   120    1
   110   124   125   ar
   111   124   123    1
   112   120   123    1
   113    10     9    1
   114   130   131    1
   115    21    22    1
   116    13    14    1
   117    13    12    1
   118   159   158    1
   119   131   132    1
   120   145   144    1
   121   144   143    1
   122   160   158    1
   123     9    12    1
   124     9     8    1
   125   143   142    1
   126    22    23    1
   127     4     3    2
   128    23    24    1
   129   142   141    1
   130   158   157    1
   131   132   137   am
   132   132   133    2
   133   137   138    1
   134     3     8   am
   135     3     2    1
   136   157   154    1
   137   141   138    1
   138   138   139    1
   139   154   153    1
   140   154   155    1
   141     2     1    1
   142     2     5    1
   143   156   155    2
   144   155   161   am
   145   150   147    1
   146   150   151    1
   147   139   140    2
   148     6     5    1
   149   147   146    1
   150   147   148    1
   151     5     7    1
   152   149   148    2
   153   146   152    1
   154   172   171    1
   155   161   162    1
   156   151   152    1
   157   169   171   ar
   158   169   167   ar
   159   171   170   ar
   160   167   166   ar
   161   162   163    1
   162   162   165    1
   163   170   168   ar
   164   166   168   ar
   165   166   165    1
   166   163   164    2
