@<TRIPOS>MOLECULE
tmp/3dabG00.pdb
 171 164 0 0 0
SMALL
GASTEIGER

@<TRIPOS>ATOM
      1  N         15.2670   -5.9100   43.0790 N.3     5  GLN5       -0.1245
      2  CA        15.7200   -7.0060   42.2430 C.3     5  GLN5        0.1566
      3  C         15.9500   -6.6350   40.7840 C.2     5  GLN5        0.2260
      4  O         16.8380   -7.1960   40.1360 O.2     5  GLN5       -0.2867
      5  CB        14.6660   -8.0990   42.2750 C.3     5  GLN5        0.0367
      6  CG        14.5760   -8.8380   43.5870 C.3     5  GLN5        0.0905
      7  CD        13.4920   -9.8570   43.5270 C.2     5  GLN5        0.2608
      8  OE1       12.3160   -9.5220   43.5910 O.2     5  GLN5       -0.2717
      9  NE2       13.8740  -11.1240   43.3650 N.am    5  GLN5       -0.0878
     10  N         10.3400   -8.2510   41.9230 N.3    28  VAL28      -0.1231
     11  CA         9.5400   -8.8660   40.8750 C.3    28  VAL28       0.1692
     12  C          8.0730   -8.8820   41.2850 C.2    28  VAL28       0.2591
     13  O          7.1910   -8.6810   40.4650 O.2    28  VAL28      -0.2718
     14  CB        10.0320  -10.2800   40.4910 C.3    28  VAL28       0.0266
     15  CG1        9.0770  -10.8980   39.4610 C.3    28  VAL28       0.0020
     16  CG2       11.4520  -10.2160   39.9370 C.3    28  VAL28       0.0020
     17  N          7.8130   -9.1020   42.5710 N.am   29  LYS29      -0.1980
     18  CA         6.4580   -9.0230   43.0990 C.3    29  LYS29       0.1596
     19  C          5.7570   -7.6920   42.7750 C.2    29  LYS29       0.2287
     20  O          4.5950   -7.6770   42.3300 O.2    29  LYS29      -0.2864
     21  CB         6.4790   -9.2500   44.6170 C.3    29  LYS29       0.0298
     22  CG         5.1200   -8.9780   45.3190 C.3    29  LYS29       0.0038
     23  CD         3.9610   -9.9300   44.7810 C.3    29  LYS29       0.0206
     24  CE         2.5110   -9.4490   45.0630 C.3    29  LYS29       0.1093
     25  NZ         2.2180   -9.0630   46.5170 N.3    29  LYS29      -0.1314
     26  N          4.9000   -7.3980   38.9630 N.3    32  MET32      -0.1230
     27  CA         3.6910   -8.1830   38.7140 C.3    32  MET32       0.1702
     28  C          2.4620   -7.4350   39.2070 C.2    32  MET32       0.2592
     29  O          1.4650   -7.3150   38.4870 O.2    32  MET32      -0.2718
     30  CB         3.7830   -9.5780   39.3820 C.3    32  MET32       0.0401
     31  CG         4.7660  -10.5380   38.7170 C.3    32  MET32       0.0596
     32  SD         4.5330  -10.7900   36.9290 S.3    32  MET32      -0.1393
     33  CE         2.9320  -11.5780   36.8900 C.3    32  MET32       0.0692
     34  N          2.5220   -6.9120   40.4270 N.am   33  HIS33      -0.1976
     35  CA         1.3940   -6.1640   40.9830 C.3    33  HIS33       0.1656
     36  C          1.0030   -4.9570   40.1120 C.2    33  HIS33       0.2291
     37  O         -0.1690   -4.7900   39.7380 O.2    33  HIS33      -0.2864
     38  CB         1.6950   -5.6910   42.4040 C.3    33  HIS33       0.0771
     39  CG         0.6900   -4.7110   42.9240 C.ar   33  HIS33       0.0820
     40  ND1       -0.5860   -5.0790   43.2920 N.ar   33  HIS33      -0.2267
     41  CD2        0.7580   -3.3720   43.0980 C.ar   33  HIS33       0.1154
     42  CE1       -1.2560   -4.0130   43.6850 C.ar   33  HIS33       0.1986
     43  NE2       -0.4680   -2.9600   43.5620 N.ar   33  HIS33      -0.2212
     44  N          1.8080   -4.2290   37.0050 N.3    35  LEU35      -0.1231
     45  CA         1.4110   -4.5970   35.6430 C.3    35  LEU35       0.1693
     46  C         -0.0770   -4.9700   35.6560 C.2    35  LEU35       0.2592
     47  O         -0.8450   -4.5340   34.8000 O.2    35  LEU35      -0.2718
     48  CB         2.2520   -5.7620   35.1120 C.3    35  LEU35       0.0284
     49  CG         2.7530   -5.7870   33.6590 C.3    35  LEU35       0.0019
     50  CD1        2.7110   -7.2190   33.1180 C.3    35  LEU35       0.0001
     51  CD2        2.0340   -4.8260   32.7210 C.3    35  LEU35       0.0001
     52  N         -0.4970   -5.7530   36.6560 N.am   36  GLY36      -0.1957
     53  CA        -1.9210   -6.0160   36.8550 C.3    36  GLY36       0.1869
     54  C         -2.7650   -4.7640   37.0530 C.2    36  GLY36       0.2309
     55  O         -3.8370   -4.6270   36.4480 O.2    36  GLY36      -0.2863
     56  N         -3.3010   -2.8530   33.7470 N.3    39  ILE39      -0.1231
     57  CA        -4.3310   -3.4940   32.9460 C.3    39  ILE39       0.1692
     58  C         -5.7420   -3.1310   33.4370 C.2    39  ILE39       0.2591
     59  O         -6.6300   -2.8430   32.6350 O.2    39  ILE39      -0.2718
     60  CB        -4.1190   -5.0210   32.9150 C.3    39  ILE39       0.0266
     61  CG1       -2.8860   -5.3540   32.0650 C.3    39  ILE39       0.0019
     62  CG2       -5.3350   -5.7260   32.3490 C.3    39  ILE39       0.0020
     63  CD1       -2.3560   -6.7440   32.2930 C.3    39  ILE39       0.0001
     64  N         -5.9370   -3.1400   34.7510 N.am   40  MET40      -0.1979
     65  CA        -7.2050   -2.7140   35.3430 C.3    40  MET40       0.1605
     66  C         -7.5340   -1.2450   35.1380 C.2    40  MET40       0.2287
     67  O         -8.6470   -0.9280   34.7490 O.2    40  MET40      -0.2864
     68  CB        -7.2390   -3.0190   36.8290 C.3    40  MET40       0.0413
     69  CG        -7.2630   -4.4900   37.1060 C.3    40  MET40       0.0598
     70  SD        -7.6920   -4.8240   38.8080 S.3    40  MET40      -0.1393
     71  CE        -6.3260   -5.9010   39.2230 C.3    40  MET40       0.0692
     72  N         -8.7010   -5.4670   29.9240 N.3    45  TYR45      -0.1241
     73  CA        -9.3070   -6.7920   29.9790 C.3    45  TYR45       0.1605
     74  C        -10.7140   -6.7560   29.3660 C.2    45  TYR45       0.2264
     75  O        -11.4280   -5.7530   29.4480 O.2    45  TYR45      -0.2867
     76  CB        -9.3170   -7.3810   31.4090 C.3    45  TYR45       0.0534
     77  CG       -10.1310   -6.6110   32.4230 C.ar   45  TYR45      -0.0201
     78  CD1      -11.4880   -6.8870   32.6130 C.ar   45  TYR45      -0.0009
     79  CD2       -9.5470   -5.6120   33.1960 C.ar   45  TYR45      -0.0009
     80  CE1      -12.2340   -6.1890   33.5320 C.ar   45  TYR45       0.0417
     81  CE2      -10.2880   -4.9000   34.1210 C.ar   45  TYR45       0.0417
     82  CZ       -11.6350   -5.1980   34.2850 C.ar   45  TYR45       0.1957
     83  OH       -12.3650   -4.4960   35.1950 O.3    45  TYR45      -0.2866
     84  N        -12.8900  -12.0190   31.3690 N.3    50  GLN50      -0.1231
     85  CA       -11.8790  -11.1850   32.0240 C.3    50  GLN50       0.1698
     86  C        -10.4570  -11.7620   32.0760 C.2    50  GLN50       0.2592
     87  O         -9.5350  -11.0860   32.5480 O.2    50  GLN50      -0.2718
     88  CB       -12.3490  -10.8010   33.4230 C.3    50  GLN50       0.0381
     89  CG       -13.6890  -10.0740   33.4100 C.3    50  GLN50       0.0905
     90  CD       -13.9400   -9.2350   34.6330 C.2    50  GLN50       0.2608
     91  OE1      -13.1670   -9.2630   35.5920 O.2    50  GLN50      -0.2717
     92  NE2      -15.0320   -8.4780   34.6120 N.am   50  GLN50      -0.0878
     93  N        -10.2720  -12.9850   31.5780 N.am   51  HIS51      -0.1976
     94  CA        -8.9260  -13.5390   31.3950 C.3    51  HIS51       0.1656
     95  C         -8.2320  -13.0240   30.1320 C.2    51  HIS51       0.2291
     96  O         -7.0110  -13.1320   30.0100 O.2    51  HIS51      -0.2864
     97  CB        -8.9570  -15.0680   31.3740 C.3    51  HIS51       0.0771
     98  CG        -9.5660  -15.6620   30.1440 C.ar   51  HIS51       0.0820
     99  ND1       -8.8220  -16.0190   29.0410 N.ar   51  HIS51      -0.2267
    100  CD2      -10.8450  -16.0060   29.8600 C.ar   51  HIS51       0.1154
    101  CE1       -9.6160  -16.5380   28.1220 C.ar   51  HIS51       0.1986
    102  NE2      -10.8500  -16.5410   28.5930 N.ar   51  HIS51      -0.2212
    103  N         -6.8670  -10.1630   27.6350 N.3    53  VAL53      -0.1245
    104  CA        -6.3700   -8.7900   27.6950 C.3    53  VAL53       0.1561
    105  C         -6.1340   -8.3080   26.2800 C.2    53  VAL53       0.2260
    106  O         -5.3760   -8.9250   25.5290 O.2    53  VAL53      -0.2867
    107  CB        -5.0590   -8.6770   28.5010 C.3    53  VAL53       0.0252
    108  CG1       -4.5330   -7.2520   28.4530 C.3    53  VAL53       0.0019
    109  CG2       -5.2810   -9.1130   29.9460 C.3    53  VAL53       0.0019
    110  N         -3.6010  -11.1850   24.7720 N.3    69  PHE69      -0.1241
    111  CA        -3.1600  -12.4040   25.4190 C.3    69  PHE69       0.1605
    112  C         -4.1660  -12.8370   26.4810 C.2    69  PHE69       0.2264
    113  O         -5.0820  -12.0840   26.8410 O.2    69  PHE69      -0.2867
    114  CB        -1.7480  -12.2440   26.0140 C.3    69  PHE69       0.0534
    115  CG        -1.6680  -11.2580   27.1480 C.ar   69  PHE69      -0.0203
    116  CD1       -1.6350  -11.6940   28.4600 C.ar   69  PHE69      -0.0042
    117  CD2       -1.6260   -9.8980   26.9010 C.ar   69  PHE69      -0.0042
    118  CE1       -1.5630  -10.7850   29.5150 C.ar   69  PHE69      -0.0003
    119  CE2       -1.5600   -8.9820   27.9560 C.ar   69  PHE69      -0.0003
    120  CZ        -1.5320   -9.4310   29.2520 C.ar   69  PHE69      -0.0000
    121  N         -4.4810  -14.3220   30.4090 N.3    71  VAL71      -0.1231
    122  CA        -3.7660  -14.5220   31.6760 C.3    71  VAL71       0.1692
    123  C         -3.8680  -15.9910   32.1380 C.2    71  VAL71       0.2591
    124  O         -3.1860  -16.4020   33.0780 O.2    71  VAL71      -0.2718
    125  CB        -4.1220  -13.4350   32.7840 C.3    71  VAL71       0.0266
    126  CG1       -5.2430  -12.5080   32.3480 C.3    71  VAL71       0.0020
    127  CG2       -4.3970  -14.0390   34.1570 C.3    71  VAL71       0.0020
    128  N         -4.6770  -16.7910   31.4340 N.am   72  LYS72      -0.1980
    129  CA        -4.6900  -18.2550   31.6270 C.3    72  LYS72       0.1596
    130  C         -3.6020  -18.9710   30.8070 C.2    72  LYS72       0.2287
    131  O         -3.3350  -20.1630   31.0140 O.2    72  LYS72      -0.2864
    132  CB        -6.0790  -18.8280   31.2940 C.3    72  LYS72       0.0298
    133  CG        -7.1970  -18.3200   32.2250 C.3    72  LYS72       0.0038
    134  CD        -8.4570  -19.1820   32.0360 C.3    72  LYS72       0.0206
    135  CE        -9.6670  -18.7490   32.7900 C.3    72  LYS72       0.1093
    136  NZ        -9.4080  -18.7750   34.2550 N.3    72  LYS72      -0.1314
    137  N         -0.1370  -17.4320   30.2370 N.3    74  PRO74      -0.2116
    138  CA         0.6910  -16.2360   30.4610 C.3    74  PRO74       0.1372
    139  C          2.0890  -16.2080   29.8370 C.2    74  PRO74       0.2244
    140  O          2.8070  -15.2340   30.0400 O.2    74  PRO74      -0.2868
    141  CB         0.7900  -16.1720   31.9910 C.3    74  PRO74       0.0268
    142  CG         0.7240  -17.5880   32.4260 C.3    74  PRO74       0.0207
    143  CD        -0.2010  -18.2810   31.4470 C.3    74  PRO74       0.0892
    144  N          3.7170  -13.0210   28.5240 N.3    77  LEU77      -0.1231
    145  CA         3.9920  -12.0860   29.5970 C.3    77  LEU77       0.1693
    146  C          5.3740  -12.3390   30.1750 C.2    77  LEU77       0.2592
    147  O          6.1890  -11.4160   30.2980 O.2    77  LEU77      -0.2718
    148  CB         2.9240  -12.2370   30.6760 C.3    77  LEU77       0.0284
    149  CG         2.7970  -11.0970   31.6720 C.3    77  LEU77       0.0019
    150  CD1        2.3510   -9.8170   30.9480 C.3    77  LEU77       0.0001
    151  CD2        1.8240  -11.5030   32.7500 C.3    77  LEU77       0.0001
    152  N          5.6550  -13.5970   30.5100 N.am   78  TYR78      -0.1976
    153  CA         6.9430  -13.9520   31.1070 C.3    78  TYR78       0.1639
    154  C          8.1190  -13.7570   30.1430 C.2    78  TYR78       0.2290
    155  O          9.2140  -13.3450   30.5620 O.2    78  TYR78      -0.2864
    156  CB         6.8950  -15.3870   31.6740 C.3    78  TYR78       0.0560
    157  CG         5.9950  -15.4800   32.8770 C.ar   78  TYR78      -0.0198
    158  CD1        4.7210  -16.0370   32.7850 C.ar   78  TYR78      -0.0009
    159  CD2        6.3900  -14.9620   34.1040 C.ar   78  TYR78      -0.0009
    160  CE1        3.8740  -16.0980   33.9000 C.ar   78  TYR78       0.0417
    161  CE2        5.5520  -15.0260   35.2160 C.ar   78  TYR78       0.0417
    162  CZ         4.3000  -15.5980   35.1020 C.ar   78  TYR78       0.1957
    163  OH         3.4670  -15.6640   36.1840 O.3    78  TYR78      -0.2866
    164  N          8.7570  -10.0500   30.2880 N.3    81  LEU81      -0.1245
    165  CA         9.4030   -9.6430   31.5420 C.3    81  LEU81       0.1561
    166  C         10.8810   -9.9990   31.5800 C.2    81  LEU81       0.2260
    167  O         11.6990   -9.2010   32.0410 O.2    81  LEU81      -0.2867
    168  CB         8.6760  -10.2400   32.7430 C.3    81  LEU81       0.0270
    169  CG         7.2740   -9.6870   32.9560 C.3    81  LEU81       0.0019
    170  CD1        6.5770  -10.4560   34.0710 C.3    81  LEU81       0.0001
    171  CD2        7.2990   -8.1620   33.2650 C.3    81  LEU81       0.0001
@<TRIPOS>BOND
     1   110   111    1
     2   111   114    1
     3   111   112    1
     4   106   105    2
     5   114   115    1
     6   105   104    1
     7   112   113    2
     8   117   115   ar
     9   117   119   ar
    10   115   116   ar
    11   103   104    1
    12   104   107    1
    13   119   120   ar
    14   101   102   ar
    15   101    99   ar
    16   108   107    1
    17   116   118   ar
    18   107   109    1
    19   144   145    1
    20   102   100   ar
    21    99    98   ar
    22   120   118   ar
    23    74    75    2
    24    74    73    1
    25   145   146    1
    26   145   148    1
    27   139   140    2
    28   139   138    1
    29   100    98   ar
    30    72    73    1
    31    73    76    1
    32    96    95    2
    33    95    94    1
    34   154   155    2
    35   154   153    1
    36    98    97    1
    37   146   147    2
    38   146   152   am
    39   137   138    1
    40   137   143    1
    41   164   165    1
    42   121   122    1
    43   138   141    1
    44   152   153    1
    45   148   149    1
    46   130   131    2
    47   130   129    1
    48   150   149    1
    49   153   156    1
    50   132   129    1
    51   132   133    1
    52    84    85    1
    53    97    94    1
    54    94    93    1
    55    76    77    1
    56   128   129    1
    57   128   123   am
    58   143   142    1
    59   165   166    1
    60   165   168    1
    61    93    86   am
    62   166   167    2
    63   149   151    1
    64   156   157    1
    65   122   123    1
    66   122   125    1
    67   141   142    1
    68    85    86    1
    69    85    88    1
    70   134   133    1
    71   134   135    1
    72    61    63    1
    73    61    60    1
    74    86    87    2
    75   123   124    2
    76   126   125    1
    77    62    60    1
    78    77    78   ar
    79    77    79   ar
    80    78    80   ar
    81    59    58    2
    82    51    49    1
    83   168   169    1
    84   125   127    1
    85   158   157   ar
    86   158   160   ar
    87   135   136    1
    88   157   159   ar
    89    60    57    1
    90    57    58    1
    91    57    56    1
    92   169   171    1
    93   169   170    1
    94    50    49    1
    95    79    81   ar
    96    89    88    1
    97    89    90    1
    98    58    64   am
    99    80    82   ar
   100    49    48    1
   101   160   162   ar
   102   159   161   ar
   103    81    82   ar
   104    82    83    1
   105    92    90   am
   106    90    91    2
   107    67    66    2
   108    64    65    1
   109    47    46    2
   110   162   161   ar
   111   162   163    1
   112    48    45    1
   113    66    65    1
   114    65    68    1
   115    45    46    1
   116    45    44    1
   117    46    52   am
   118    55    54    2
   119    52    53    1
   120    68    69    1
   121    53    54    1
   122    33    32    1
   123    32    31    1
   124    69    70    1
   125    29    28    2
   126    27    26    1
   127    27    28    1
   128    27    30    1
   129    31    30    1
   130    70    71    1
   131    28    34   am
   132    15    14    1
   133    37    36    2
   134    16    14    1
   135    36    35    1
   136     4     3    2
   137    34    35    1
   138    13    12    2
   139    14    11    1
   140     3     2    1
   141    11    12    1
   142    11    10    1
   143    35    38    1
   144    12    17   am
   145     2     5    1
   146     2     1    1
   147     5     6    1
   148    20    19    2
   149    38    39    1
   150    17    18    1
   151    19    18    1
   152    39    41   ar
   153    39    40   ar
   154    41    43   ar
   155    18    21    1
   156    40    42   ar
   157     9     7   am
   158     7     6    1
   159     7     8    2
   160    43    42   ar
   161    21    22    1
   162    23    24    1
   163    23    22    1
   164    24    25    1
