@<TRIPOS>MOLECULE
tmp/3dajA00.pdb
 188 179 0 0 0
SMALL
GASTEIGER

@<TRIPOS>ATOM
      1  N         71.6640   30.1500    6.1820 N.3    13  LEU13      -0.1231
      2  CA        70.5970   29.1820    6.4300 C.3    13  LEU13       0.1693
      3  C         71.0190   28.1020    7.4260 C.2    13  LEU13       0.2593
      4  O         70.1780   27.5350    8.1240 O.2    13  LEU13      -0.2718
      5  CB        70.1100   28.5520    5.1180 C.3    13  LEU13       0.0284
      6  CG        69.4910   29.4760    4.0600 C.3    13  LEU13       0.0019
      7  CD1       69.3080   28.7390    2.7410 C.3    13  LEU13       0.0001
      8  CD2       68.1690   30.0750    4.5310 C.3    13  LEU13       0.0001
      9  N         72.3200   27.8260    7.4890 N.am   14  GLY14      -0.1942
     10  CA        72.8530   26.8540    8.4430 C.3    14  GLY14       0.2014
     11  C         74.2870   26.4330    8.1840 C.2    14  GLY14       0.2639
     12  O         74.7460   26.4190    7.0400 O.2    14  GLY14      -0.2714
     13  N         74.9910   26.0940    9.2620 N.am   15  LYS15      -0.1963
     14  CA        76.3490   25.5630    9.1810 C.3    15  LYS15       0.1728
     15  C         76.3010   24.0660    8.8990 C.2    15  LYS15       0.2617
     16  O         75.4670   23.3490    9.4550 O.2    15  LYS15      -0.2715
     17  CB        77.1150   25.8240   10.4820 C.3    15  LYS15       0.0311
     18  CG        77.3740   27.2930   10.7870 C.3    15  LYS15       0.0038
     19  CD        78.1260   27.4420   12.0970 C.3    15  LYS15       0.0206
     20  CE        79.0410   28.6560   12.0820 C.3    15  LYS15       0.1093
     21  NZ        78.3070   29.8920   11.6930 N.3    15  LYS15      -0.1314
     22  N         77.2010   23.6000    8.0370 N.am   16  GLY16      -0.1940
     23  CA        77.2480   22.1900    7.6610 C.3    16  GLY16       0.2014
     24  C         78.6070   21.5410    7.8340 C.2    16  GLY16       0.2639
     25  O         79.4860   22.0860    8.5060 O.2    16  GLY16      -0.2714
     26  N         78.7740   20.3750    7.2130 N.am   17  LYS17      -0.1963
     27  CA        79.9820   19.5660    7.3730 C.3    17  LYS17       0.1728
     28  C         81.2130   20.1700    6.6920 C.2    17  LYS17       0.2616
     29  O         82.2940   20.2060    7.2850 O.2    17  LYS17      -0.2715
     30  CB        79.7420   18.1330    6.8800 C.3    17  LYS17       0.0311
     31  CG        80.7620   17.1230    7.3910 C.3    17  LYS17       0.0038
     32  CD        80.4580   15.7160    6.9020 C.3    17  LYS17       0.0206
     33  CE        81.4320   14.7110    7.5000 C.3    17  LYS17       0.1093
     34  NZ        81.1950   13.3290    6.9980 N.3    17  LYS17      -0.1314
     35  N         81.0480   20.6410    5.4570 N.am   18  PHE18      -0.1960
     36  CA        82.1690   21.1870    4.6860 C.3    18  PHE18       0.1771
     37  C         82.0520   22.6860    4.3920 C.2    18  PHE18       0.2620
     38  O         82.8470   23.2360    3.6250 O.2    18  PHE18      -0.2715
     39  CB        82.3740   20.3970    3.3860 C.3    18  PHE18       0.0574
     40  CG        82.6720   18.9380    3.6000 C.ar   18  PHE18      -0.0200
     41  CD1       81.8070   17.9630    3.1170 C.ar   18  PHE18      -0.0042
     42  CD2       83.8150   18.5380    4.2890 C.ar   18  PHE18      -0.0042
     43  CE1       82.0740   16.6100    3.3120 C.ar   18  PHE18      -0.0003
     44  CE2       84.0910   17.1890    4.4910 C.ar   18  PHE18      -0.0003
     45  CZ        83.2180   16.2230    4.0010 C.ar   18  PHE18      -0.0000
     46  N         81.0710   23.3410    5.0090 N.am   19  GLY19      -0.1940
     47  CA        80.9010   24.7820    4.8510 C.3    19  GLY19       0.2014
     48  C         79.5580   25.3180    5.3040 C.2    19  GLY19       0.2639
     49  O         78.9880   24.8490    6.2930 O.2    19  GLY19      -0.2714
     50  N         79.0580   26.3090    4.5680 N.am   20  ASN20      -0.1958
     51  CA        77.8290   27.0110    4.9240 C.3    20  ASN20       0.1819
     52  C         76.8740   27.1620    3.7430 C.2    20  ASN20       0.2621
     53  O         77.2840   27.0670    2.5840 O.2    20  ASN20      -0.2715
     54  CB        78.1570   28.3930    5.5010 C.3    20  ASN20       0.1195
     55  CG        79.0320   28.3220    6.7430 C.2    20  ASN20       0.2630
     56  OD1       78.7370   27.5870    7.6850 O.2    20  ASN20      -0.2716
     57  ND2       80.1110   29.0970    6.7500 N.am   20  ASN20      -0.0877
     58  N         75.6020   27.3960    4.0520 N.am   21  VAL21      -0.1977
     59  CA        74.5780   27.6540    3.0420 C.3    21  VAL21       0.1596
     60  C         73.8780   28.9830    3.3430 C.2    21  VAL21       0.2287
     61  O         73.5640   29.2860    4.4980 O.2    21  VAL21      -0.2864
     62  CB        73.5720   26.4620    2.9050 C.3    21  VAL21       0.0276
     63  CG1       72.8040   26.2140    4.2040 C.3    21  VAL21       0.0022
     64  CG2       72.6130   26.6770    1.7330 C.3    21  VAL21       0.0022
     65  N         69.2740   29.2040   -2.8710 N.3    34  ALA34      -0.1245
     66  CA        70.2140   28.8920   -1.8000 C.3    34  ALA34       0.1562
     67  C         71.5970   28.6020   -2.3740 C.2    34  ALA34       0.2260
     68  O         71.7480   27.7460   -3.2510 O.2    34  ALA34      -0.2867
     69  CB        69.7150   27.7150   -0.9770 C.3    34  ALA34       0.0290
     70  N         75.1290   27.1220   -1.5950 N.3    36  LYS36      -0.1245
     71  CA        75.9040   26.2650   -0.7060 C.3    36  LYS36       0.1561
     72  C         77.3880   26.4530   -0.9900 C.2    36  LYS36       0.2260
     73  O         77.8410   26.2840   -2.1260 O.2    36  LYS36      -0.2867
     74  CB        75.5050   24.8020   -0.9000 C.3    36  LYS36       0.0271
     75  CG        75.7540   23.9060    0.3010 C.3    36  LYS36       0.0035
     76  CD        75.3830   22.4700   -0.0310 C.3    36  LYS36       0.0206
     77  CE        75.0580   21.6660    1.2130 C.3    36  LYS36       0.1093
     78  NZ        73.7540   22.0500    1.8280 N.3    36  LYS36      -0.1314
     79  N         81.1650   25.2610   -0.1250 N.3    38  LEU38      -0.1245
     80  CA        81.9880   24.1850    0.4250 C.3    38  LEU38       0.1561
     81  C         83.4690   24.4700    0.2100 C.2    38  LEU38       0.2260
     82  O         83.8890   24.8010   -0.8980 O.2    38  LEU38      -0.2867
     83  CB        81.6060   22.8320   -0.1880 C.3    38  LEU38       0.0270
     84  CG        80.1510   22.3530   -0.0900 C.3    38  LEU38       0.0019
     85  CD1       79.9730   21.0570   -0.8640 C.3    38  LEU38       0.0001
     86  CD2       79.6920   22.1820    1.3570 C.3    38  LEU38       0.0001
     87  N         82.3780   14.2700   -4.6000 N.3    52  LEU52      -0.1245
     88  CA        81.4870   15.4220   -4.7440 C.3    52  LEU52       0.1561
     89  C         81.2340   15.7670   -6.2110 C.2    52  LEU52       0.2260
     90  O         80.0990   16.0580   -6.5920 O.2    52  LEU52      -0.2867
     91  CB        82.0410   16.6410   -3.9920 C.3    52  LEU52       0.0270
     92  CG        81.2150   17.9370   -4.0120 C.3    52  LEU52       0.0019
     93  CD1       79.9200   17.7980   -3.2180 C.3    52  LEU52       0.0001
     94  CD2       82.0360   19.1080   -3.4940 C.3    52  LEU52       0.0001
     95  N         65.3360   18.2920   -4.3440 N.3    68  LEU68      -0.1245
     96  CA        65.8450   19.6600   -4.3690 C.3    68  LEU68       0.1561
     97  C         66.6770   19.8820   -5.6270 C.2    68  LEU68       0.2260
     98  O         67.6020   19.1190   -5.9140 O.2    68  LEU68      -0.2867
     99  CB        66.6700   19.9690   -3.1160 C.3    68  LEU68       0.0270
    100  CG        66.8960   21.4560   -2.8200 C.3    68  LEU68       0.0019
    101  CD1       65.6620   22.0720   -2.1630 C.3    68  LEU68       0.0001
    102  CD2       68.1250   21.6580   -1.9460 C.3    68  LEU68       0.0001
    103  N         71.3950   26.1210   -5.4800 N.3    84  LEU84      -0.1231
    104  CA        70.3340   25.2040   -5.0710 C.3    84  LEU84       0.1693
    105  C         68.9740   25.8740   -4.9090 C.2    84  LEU84       0.2592
    106  O         68.8820   27.0660   -4.6070 O.2    84  LEU84      -0.2718
    107  CB        70.7160   24.5110   -3.7570 C.3    84  LEU84       0.0284
    108  CG        71.8740   23.5090   -3.7520 C.3    84  LEU84       0.0019
    109  CD1       72.4030   23.3260   -2.3380 C.3    84  LEU84       0.0001
    110  CD2       71.4550   22.1710   -4.3500 C.3    84  LEU84       0.0001
    111  N         67.9220   25.0820   -5.1080 N.am   85  GLU85      -0.1966
    112  CA        66.5500   25.5000   -4.8510 C.3    85  GLU85       0.1733
    113  C         66.3870   25.8780   -3.3810 C.2    85  GLU85       0.2616
    114  O         66.8760   25.1690   -2.5010 O.2    85  GLU85      -0.2715
    115  CB        65.5920   24.3600   -5.2160 C.3    85  GLU85       0.0429
    116  CG        64.1130   24.6380   -4.9650 C.3    85  GLU85       0.1163
    117  CD        63.2360   23.4090   -5.1580 C.2    85  GLU85       0.3649
    118  OE1       62.0320   23.4880   -4.8370 O.co2  85  GLU85      -0.2457
    119  OE2       63.7420   22.3660   -5.6290 O.co2  85  GLU85      -0.2457
    120  N         65.7200   27.0000   -3.1240 N.am   86  TYR86      -0.1960
    121  CA        65.3960   27.3990   -1.7550 C.3    86  TYR86       0.1771
    122  C         64.0350   26.8560   -1.3280 C.2    86  TYR86       0.2619
    123  O         63.0440   26.9950   -2.0480 O.2    86  TYR86      -0.2715
    124  CB        65.4460   28.9250   -1.5830 C.3    86  TYR86       0.0574
    125  CG        64.9730   29.3990   -0.2210 C.ar   86  TYR86      -0.0198
    126  CD1       63.8130   30.1620   -0.0890 C.ar   86  TYR86      -0.0009
    127  CD2       65.6770   29.0650    0.9380 C.ar   86  TYR86      -0.0009
    128  CE1       63.3710   30.5930    1.1650 C.ar   86  TYR86       0.0417
    129  CE2       65.2430   29.4880    2.1940 C.ar   86  TYR86       0.0417
    130  CZ        64.0920   30.2500    2.2990 C.ar   86  TYR86       0.1957
    131  OH        63.6650   30.6670    3.5410 O.3    86  TYR86      -0.2866
    132  N         64.0030   26.2360   -0.1530 N.am   87  ALA87      -0.1977
    133  CA        62.7710   25.7040    0.4150 C.3    87  ALA87       0.1597
    134  C         62.3110   26.5860    1.5790 C.2    87  ALA87       0.2287
    135  O         62.9320   26.5810    2.6450 O.2    87  ALA87      -0.2864
    136  CB        62.9760   24.2680    0.8660 C.3    87  ALA87       0.0319
    137  N         61.2670   25.1340    5.5010 N.3    90  GLY90      -0.1210
    138  CA        62.2330   24.4510    6.3690 C.3    90  GLY90       0.1956
    139  C         62.2970   22.9410    6.2250 C.2    90  GLY90       0.2612
    140  O         61.8500   22.3820    5.2220 O.2    90  GLY90      -0.2717
    141  N         62.8550   22.2830    7.2410 N.am   91  THR91      -0.1952
    142  CA        63.0420   20.8300    7.2270 C.3    91  THR91       0.1897
    143  C         61.8310   20.0820    7.7870 C.2    91  THR91       0.2313
    144  O         61.0780   20.6190    8.6050 O.2    91  THR91      -0.2863
    145  CB        64.3040   20.3940    8.0170 C.3    91  THR91       0.1794
    146  OG1       64.1240   20.6700    9.4110 O.3    91  THR91      -0.2208
    147  CG2       65.5510   21.1120    7.5110 C.3    91  THR91       0.0378
    148  N         66.1960   15.4630    8.5780 N.3   134  GLU134     -0.1231
    149  CA        66.8480   16.7760    8.5120 C.3   134  GLU134      0.1699
    150  C         67.2810   17.1500    7.0900 C.2   134  GLU134      0.2592
    151  O         67.5080   18.3250    6.7950 O.2   134  GLU134     -0.2718
    152  CB        68.0320   16.8750    9.4850 C.3   134  GLU134      0.0402
    153  CG        69.0030   15.7000    9.4720 C.3   134  GLU134      0.1161
    154  CD        68.7290   14.7000   10.5830 C.2   134  GLU134      0.3649
    155  OE1       69.6360   14.4760   11.4120 O.co2 134  GLU134     -0.2457
    156  OE2       67.6090   14.1500   10.6380 O.co2 134  GLU134     -0.2457
    157  N         67.3830   16.1450    6.2200 N.am  135  ASN135     -0.1974
    158  CA        67.7460   16.3460    4.8160 C.3   135  ASN135      0.1688
    159  C         66.5330   16.3720    3.8830 C.2   135  ASN135      0.2292
    160  O         66.6710   16.2790    2.6580 O.2   135  ASN135     -0.2864
    161  CB        68.7520   15.2790    4.3640 C.3   135  ASN135      0.1181
    162  CG        70.0760   15.3600    5.1130 C.2   135  ASN135      0.2629
    163  OD1       70.7210   14.3390    5.3590 O.2   135  ASN135     -0.2716
    164  ND2       70.4890   16.5720    5.4720 N.am  135  ASN135     -0.0877
    165  N         63.5410   18.8150    2.8190 N.3   137  LEU137     -0.1245
    166  CA        63.1190   20.2130    2.8630 C.3   137  LEU137      0.1561
    167  C         61.7070   20.3950    2.3140 C.2   137  LEU137      0.2260
    168  O         61.2360   19.5830    1.5170 O.2   137  LEU137     -0.2867
    169  CB        64.1110   21.0930    2.0950 C.3   137  LEU137      0.0270
    170  CG        65.5290   21.2490    2.6540 C.3   137  LEU137      0.0019
    171  CD1       66.4390   21.8780    1.6150 C.3   137  LEU137      0.0001
    172  CD2       65.5380   22.0750    3.9360 C.3   137  LEU137      0.0001
    173  N         67.0820   16.4690   -0.1280 N.3   147  ALA147     -0.1245
    174  CA        68.1890   17.4180   -0.2110 C.3   147  ALA147      0.1562
    175  C         69.4330   16.9150    0.5200 C.2   147  ALA147      0.2260
    176  O         69.7440   17.3640    1.6280 O.2   147  ALA147     -0.2867
    177  CB        67.7610   18.7700    0.3330 C.3   147  ALA147      0.0290
    178  N         73.4270   14.3750   -0.3660 N.3   149  PHE149     -0.1241
    179  CA        74.4250   13.9510   -1.3450 C.3   149  PHE149      0.1605
    180  C         74.5200   12.4260   -1.4180 C.2   149  PHE149      0.2264
    181  O         75.6090   11.8640   -1.5580 O.2   149  PHE149     -0.2867
    182  CB        75.7880   14.5730   -1.0180 C.3   149  PHE149      0.0534
    183  CG        75.7910   16.0770   -1.0510 C.ar  149  PHE149     -0.0203
    184  CD1       75.5510   16.8130    0.1060 C.ar  149  PHE149     -0.0042
    185  CD2       76.0300   16.7580   -2.2410 C.ar  149  PHE149     -0.0042
    186  CE1       75.5490   18.2050    0.0790 C.ar  149  PHE149     -0.0003
    187  CE2       76.0320   18.1500   -2.2780 C.ar  149  PHE149     -0.0003
    188  CZ        75.7920   18.8750   -1.1150 C.ar  149  PHE149     -0.0000
@<TRIPOS>BOND
     1    90    89    2
     2    89    88    1
     3    98    97    2
     4   119   117   ar
     5    97    96    1
     6   103   104    1
     7   115   116    1
     8   115   112    1
     9   117   116    1
    10   117   118   ar
    11   111   105   am
    12   111   112    1
    13   104   105    1
    14   104   107    1
    15   105   106    2
    16   112   113    1
    17    88    87    1
    18    88    91    1
    19    96    95    1
    20    96    99    1
    21   110   108    1
    22    92    91    1
    23    92    94    1
    24    92    93    1
    25   107   108    1
    26   108   109    1
    27   113   120   am
    28   113   114    2
    29    68    67    2
    30   120   121    1
    31    99   100    1
    32    65    66    1
    33   100   101    1
    34   100   102    1
    35    67    66    1
    36   187   185   ar
    37   187   188   ar
    38   185   183   ar
    39    73    72    2
    40   123   122    2
    41    66    69    1
    42   121   124    1
    43   121   122    1
    44    70    71    1
    45   124   125    1
    46   181   180    2
    47   180   179    1
    48   179   182    1
    49   179   178    1
    50   122   132   am
    51   188   186   ar
    52   183   182    1
    53   183   184   ar
    54    72    71    1
    55    74    71    1
    56    74    75    1
    57    82    81    2
    58    85    84    1
    59   125   126   ar
    60   125   127   ar
    61   174   173    1
    62   174   177    1
    63   174   175    1
    64    83    84    1
    65    83    80    1
    66   132   133    1
    67    79    80    1
    68    84    86    1
    69   126   128   ar
    70    76    75    1
    71    76    77    1
    72   186   184   ar
    73    81    80    1
    74   133   136    1
    75   133   134    1
    76   175   176    2
    77   127   129   ar
    78   128   130   ar
    79    77    78    1
    80   168   167    2
    81   134   135    2
    82   171   170    1
    83    64    62    1
    84   169   170    1
    85   169   166    1
    86   129   130   ar
    87   130   131    1
    88   167   166    1
    89    53    52    2
    90   170   172    1
    91   160   159    2
    92     7     6    1
    93   165   166    1
    94    62    59    1
    95    62    63    1
    96    59    60    1
    97    59    58    1
    98    41    43   ar
    99    41    40   ar
   100    43    45   ar
   101    60    61    2
   102    39    40    1
   103    39    36    1
   104    40    42   ar
   105    38    37    2
   106    52    58   am
   107    52    51    1
   108   159   158    1
   109    45    44   ar
   110     6     8    1
   111     6     5    1
   112    42    44   ar
   113   161   158    1
   114   161   162    1
   115    37    36    1
   116    37    46   am
   117    50    51    1
   118    50    48   am
   119    36    35    1
   120   158   157    1
   121    47    46    1
   122    47    48    1
   123    51    54    1
   124   162   163    2
   125   162   164   am
   126     5     2    1
   127   140   139    2
   128    48    49    2
   129    35    28   am
   130   137   138    1
   131    54    55    1
   132     1     2    1
   133   157   150   am
   134   139   138    1
   135   139   141   am
   136     2     3    1
   137    28    29    2
   138    28    27    1
   139    55    57   am
   140    55    56    2
   141   151   150    2
   142    30    27    1
   143    30    31    1
   144    32    31    1
   145    32    33    1
   146    34    33    1
   147    12    11    2
   148   150   149    1
   149    26    27    1
   150    26    24   am
   151   142   141    1
   152   142   143    1
   153   142   145    1
   154     3     9   am
   155     3     4    2
   156     9    10    1
   157   147   145    1
   158    23    24    1
   159    23    22    1
   160   143   144    2
   161    24    25    2
   162   145   146    1
   163    22    15   am
   164    11    10    1
   165    11    13   am
   166   149   148    1
   167   149   152    1
   168    15    14    1
   169    15    16    2
   170    14    13    1
   171    14    17    1
   172   153   152    1
   173   153   154    1
   174    17    18    1
   175   154   156   ar
   176   154   155   ar
   177    18    19    1
   178    21    20    1
   179    20    19    1
