@<TRIPOS>MOLECULE
tmp/3daoA00.pdb
 128 120 0 0 0
SMALL
GASTEIGER

@<TRIPOS>ATOM
      1  N         -1.1590   23.4830    8.4480 N.3    43  GLY43      -0.1210
      2  CA        -1.5970   22.7830    7.2490 C.3    43  GLY43       0.1956
      3  C         -2.8720   23.3920    6.7230 C.2    43  GLY43       0.2612
      4  O         -3.2730   23.1780    5.5980 O.2    43  GLY43      -0.2717
      5  N         -3.5260   24.1750    7.5770 N.am   44  ARG44      -0.1965
      6  CA        -4.8250   24.7360    7.2200 C.3    44  ARG44       0.1729
      7  C         -4.7470   25.8040    6.1570 C.2    44  ARG44       0.2616
      8  O         -3.7110   26.4430    5.9750 O.2    44  ARG44      -0.2715
      9  CB        -5.5200   25.3560    8.4570 C.3    44  ARG44       0.0348
     10  CG        -5.9700   24.4380    9.5480 C.3    44  ARG44       0.0492
     11  CD        -6.9570   25.2080   10.4460 C.3    44  ARG44       0.2205
     12  NE        -7.3890   24.3830   11.5760 N.pl3  44  ARG44      -0.0865
     13  CZ        -8.4560   24.6330   12.3020 C.cat  44  ARG44       0.5346
     14  NH1       -9.2090   25.6720   12.0000 N.pl3  44  ARG44       0.1354
     15  NH2       -8.7750   23.8250   13.2940 N.pl3  44  ARG44       0.1354
     16  N         -5.8750   25.9780    5.4670 N.am   45  GLN45      -0.1977
     17  CA        -6.0440   27.0540    4.4900 C.3    45  GLN45       0.1601
     18  C         -6.1360   28.3680    5.2250 C.2    45  GLN45       0.2287
     19  O         -6.4480   28.4100    6.4050 O.2    45  GLN45      -0.2864
     20  CB        -7.3410   26.9280    3.6940 C.3    45  GLN45       0.0394
     21  CG        -7.4200   25.7170    2.8590 C.3    45  GLN45       0.0908
     22  CD        -8.6720   25.7240    2.0440 C.2    45  GLN45       0.2608
     23  OE1       -9.7830   25.6330    2.5840 O.2    45  GLN45      -0.2717
     24  NE2       -8.5120   25.8030    0.7250 N.am   45  GLN45      -0.0878
     25  N         -1.3600   26.1320    4.4100 N.3    65  ASP65      -0.1239
     26  CA        -1.2220   25.0260    3.4350 C.3    65  ASP65       0.1674
     27  C          0.1090   24.3310    3.5400 C.2    65  ASP65       0.2266
     28  O          0.7270   23.9450    2.5150 O.2    65  ASP65      -0.2867
     29  CB        -1.4590   25.5200    2.0030 C.3    65  ASP65       0.1410
     30  CG        -2.8840   25.9630    1.7580 C.2    65  ASP65       0.3668
     31  OD1       -3.1890   27.1360    2.0200 O.co2  65  ASP65      -0.2456
     32  OD2       -3.7030   25.1280    1.2970 O.co2  65  ASP65      -0.2456
     33  N         -6.3680   16.2490   -7.9550 N.3   101  PHE101     -0.1241
     34  CA        -6.8100   17.6100   -7.6600 C.3   101  PHE101      0.1605
     35  C         -5.6400   18.5570   -7.7130 C.2   101  PHE101      0.2264
     36  O         -4.5000   18.1630   -7.4420 O.2   101  PHE101     -0.2867
     37  CB        -7.4170   17.6720   -6.2460 C.3   101  PHE101      0.0534
     38  CG        -8.5310   16.6680   -6.0220 C.ar  101  PHE101     -0.0203
     39  CD1       -9.8410   16.9930   -6.3470 C.ar  101  PHE101     -0.0042
     40  CD2       -8.2490   15.4140   -5.5360 C.ar  101  PHE101     -0.0042
     41  CE1      -10.8520   16.0690   -6.1890 C.ar  101  PHE101     -0.0003
     42  CE2       -9.2290   14.4870   -5.3880 C.ar  101  PHE101     -0.0003
     43  CZ       -10.5380   14.8050   -5.7010 C.ar  101  PHE101     -0.0000
     44  N         -4.6430   22.3910   -6.3150 N.3   103  ALA103     -0.1245
     45  CA        -5.0910   23.4530   -5.4010 C.3   103  ALA103      0.1562
     46  C         -4.3230   24.7510   -5.5210 C.2   103  ALA103      0.2260
     47  O         -3.1400   24.7600   -5.7600 O.2   103  ALA103     -0.2867
     48  CB        -5.0240   22.9680   -3.9480 C.3   103  ALA103      0.0290
     49  N         -9.7760   24.7190   -4.8700 N.3   108  CYS108     -0.1235
     50  CA        -9.2450   23.4520   -5.3610 C.3   108  CYS108      0.1677
     51  C         -9.9900   22.9680   -6.5790 C.2   108  CYS108      0.2270
     52  O        -11.2200   22.8110   -6.5650 O.2   108  CYS108     -0.2867
     53  CB        -9.3250   22.4140   -4.2670 C.3   108  CYS108      0.0956
     54  SG        -8.4280   20.8700   -4.7220 S.3   108  CYS108     -0.0801
     55  N        -15.1150   16.4790    0.3520 N.3   121  LEU121     -0.1245
     56  CA       -14.2370   17.6600    0.4200 C.3   121  LEU121      0.1561
     57  C        -15.0390   18.9390    0.4720 C.2   121  LEU121      0.2260
     58  O        -14.7760   19.8070    1.2810 O.2   121  LEU121     -0.2867
     59  CB       -13.3080   17.7180   -0.8050 C.3   121  LEU121      0.0270
     60  CG       -12.3130   16.5910   -0.8960 C.3   121  LEU121      0.0019
     61  CD1      -11.4520   16.7120   -2.2010 C.3   121  LEU121      0.0001
     62  CD2      -11.4880   16.5190    0.3500 C.3   121  LEU121      0.0001
     63  N        -15.8940   18.8560    4.4870 N.3   125  TYR125     -0.1241
     64  CA       -14.6780   19.5430    4.8920 C.3   125  TYR125      0.1605
     65  C        -14.7600   21.0430    4.6060 C.2   125  TYR125      0.2264
     66  O        -13.9420   21.8210    5.0950 O.2   125  TYR125     -0.2867
     67  CB       -13.4270   18.9200    4.2660 C.3   125  TYR125      0.0534
     68  CG       -13.1720   17.4630    4.5840 C.ar  125  TYR125     -0.0201
     69  CD1      -13.7470   16.8500    5.6780 C.ar  125  TYR125     -0.0009
     70  CD2      -12.2340   16.7430    3.8680 C.ar  125  TYR125     -0.0009
     71  CE1      -13.4730   15.5280    5.9800 C.ar  125  TYR125      0.0417
     72  CE2      -11.9450   15.4170    4.1750 C.ar  125  TYR125      0.0417
     73  CZ       -12.5670   14.8210    5.2350 C.ar  125  TYR125      0.1957
     74  OH       -12.2550   13.4860    5.5400 O.3   125  TYR125     -0.2866
     75  N        -14.2480   22.6900    1.8150 N.3   127  PHE127     -0.1241
     76  CA       -13.2710   23.2620    0.9050 C.3   127  PHE127      0.1605
     77  C        -13.9720   23.8960   -0.2700 C.2   127  PHE127      0.2264
     78  O        -14.9570   23.3650   -0.7730 O.2   127  PHE127     -0.2867
     79  CB       -12.3030   22.2190    0.3590 C.3   127  PHE127      0.0534
     80  CG       -11.4320   21.6120    1.3730 C.ar  127  PHE127     -0.0203
     81  CD1      -10.7180   22.4010    2.2480 C.ar  127  PHE127     -0.0042
     82  CD2      -11.2560   20.2680    1.4180 C.ar  127  PHE127     -0.0042
     83  CE1       -9.8830   21.8360    3.1780 C.ar  127  PHE127     -0.0003
     84  CE2      -10.4000   19.7010    2.3200 C.ar  127  PHE127     -0.0003
     85  CZ        -9.7150   20.4930    3.2170 C.ar  127  PHE127     -0.0000
     86  N         -0.4840   22.8770   -4.7110 N.3   144  LYS144     -0.1245
     87  CA        -0.5390   21.4440   -4.3530 C.3   144  LYS144      0.1561
     88  C         -1.2210   20.6390   -5.4490 C.2   144  LYS144      0.2260
     89  O         -2.1780   21.0880   -6.0360 O.2   144  LYS144     -0.2867
     90  CB        -1.3120   21.2340   -3.0570 C.3   144  LYS144      0.0271
     91  CG        -1.4210   19.7410   -2.6320 C.3   144  LYS144      0.0035
     92  CD        -2.0750   19.5780   -1.2820 C.3   144  LYS144      0.0206
     93  CE        -3.5430   19.9850   -1.3000 C.3   144  LYS144      0.1093
     94  NZ        -4.1670   19.7310    0.0570 N.3   144  LYS144     -0.1314
     95  N         -2.6040   16.7300   -5.7610 N.3   146  THR146     -0.1218
     96  CA        -2.9560   15.6030   -4.9360 C.3   146  THR146      0.1862
     97  C         -3.5730   14.4510   -5.7110 C.2   146  THR146      0.2287
     98  O         -4.4780   14.6430   -6.5310 O.2   146  THR146     -0.2866
     99  CB        -3.9910   16.0560   -3.8830 C.3   146  THR146      0.1770
    100  OG1       -3.3700   17.0130   -2.9940 O.3   146  THR146     -0.2211
    101  CG2       -4.5210   14.8740   -3.0470 C.3   146  THR146      0.0375
    102  N         -0.4690   10.3410    2.4700 N.3   174  ALA174     -0.1245
    103  CA        -1.3290   10.5510    3.6170 C.3   174  ALA174      0.1562
    104  C         -2.3060    9.3620    3.6590 C.2   174  ALA174      0.2260
    105  O         -3.2340    9.2650    2.8280 O.2   174  ALA174     -0.2867
    106  CB        -2.0800   11.8440    3.5070 C.3   174  ALA174      0.0290
    107  N         -4.2380    9.1080   -0.1090 N.3   178  TRP178     -0.1241
    108  CA        -3.7040   10.3300   -0.7030 C.3   178  TRP178      0.1605
    109  C         -2.2030   10.3350   -0.8700 C.2   178  TRP178      0.2264
    110  O         -1.4470    9.7560   -0.0670 O.2   178  TRP178     -0.2867
    111  CB        -4.0240   11.5410    0.2130 C.3   178  TRP178      0.0550
    112  CG        -5.4840   11.6610    0.6550 C.ar  178  TRP178      0.0003
    113  CD1       -6.0030   11.2400    1.8040 C.ar  178  TRP178      0.0946
    114  CD2       -6.5650   12.2710   -0.0790 C.ar  178  TRP178      0.0152
    115  NE1       -7.3430   11.5060    1.8370 N.ar  178  TRP178     -0.2442
    116  CE2       -7.7030   12.1750    0.7100 C.ar  178  TRP178      0.0810
    117  CE3       -6.6590   12.8990   -1.3140 C.ar  178  TRP178      0.0012
    118  CZ2       -8.9480   12.6310    0.2790 C.ar  178  TRP178      0.0191
    119  CZ3       -7.8800   13.3900   -1.7270 C.ar  178  TRP178      0.0001
    120  CH2       -9.0080   13.2420   -0.9330 C.ar  178  TRP178      0.0015
    121  N          0.1640   13.6940   -1.5860 N.3   180  ASP180     -0.1239
    122  CA         0.2320   15.1560   -1.7110 C.3   180  ASP180      0.1674
    123  C          1.5840   15.5760   -2.2250 C.2   180  ASP180      0.2266
    124  O          2.6400   15.1210   -1.7500 O.2   180  ASP180     -0.2867
    125  CB         0.0440   15.8440   -0.3540 C.3   180  ASP180      0.1410
    126  CG        -1.3640   15.6880    0.1830 C.2   180  ASP180      0.3668
    127  OD1       -2.3250   15.7650   -0.6110 O.co2 180  ASP180     -0.2456
    128  OD2       -1.4810   15.4530    1.4000 O.co2 180  ASP180     -0.2456
@<TRIPOS>BOND
     1    33    34    1
     2    35    34    1
     3    35    36    2
     4    34    37    1
     5    51    52    2
     6    51    50    1
     7    98    97    2
     8    39    41   ar
     9    39    38   ar
    10    44    45    1
    11    37    38    1
    12    41    43   ar
    13    89    88    2
    14    38    40   ar
    15    95    96    1
    16    47    46    2
    17    97    96    1
    18    43    42   ar
    19    40    42   ar
    20    46    45    1
    21    88    87    1
    22    45    48    1
    23    50    49    1
    24    50    53    1
    25    96    99    1
    26    54    53    1
    27    86    87    1
    28    87    90    1
    29    99   101    1
    30    99   100    1
    31    90    91    1
    32    91    92    1
    33   123   124    2
    34   123   122    1
    35    61    60    1
    36   119   117   ar
    37   119   120   ar
    38   122   121    1
    39   122   125    1
    40   117   114   ar
    41    93    92    1
    42    93    94    1
    43   120   118   ar
    44    60    59    1
    45    60    62    1
    46   109   108    1
    47   109   110    2
    48    59    56    1
    49    78    77    2
    50   108   107    1
    51   108   111    1
    52   127   126   ar
    53   125   126    1
    54    77    76    1
    55   114   112   ar
    56   114   116   ar
    57   126   128   ar
    58   111   112    1
    59   118   116   ar
    60    55    56    1
    61    79    76    1
    62    79    80    1
    63    56    57    1
    64    57    58    2
    65   112   113   ar
    66   116   115   ar
    67    24    22   am
    68    76    75    1
    69    32    30   ar
    70    80    82   ar
    71    80    81   ar
    72    82    84   ar
    73    30    29    1
    74    30    31   ar
    75   113   115   ar
    76    29    26    1
    77    22    23    2
    78    22    21    1
    79    81    83   ar
    80    84    85   ar
    81   102   103    1
    82    28    27    2
    83   105   104    2
    84    21    20    1
    85    83    85   ar
    86    26    27    1
    87    26    25    1
    88   106   103    1
    89   103   104    1
    90    20    17    1
    91    70    72   ar
    92    70    68   ar
    93    72    73   ar
    94    67    68    1
    95    67    64    1
    96    63    64    1
    97    17    18    1
    98    17    16    1
    99    68    69   ar
   100    65    64    1
   101    65    66    2
   102    18    19    2
   103    73    74    1
   104    73    71   ar
   105    16     7   am
   106     4     3    2
   107    69    71   ar
   108     8     7    2
   109     7     6    1
   110     3     2    1
   111     3     5   am
   112     6     5    1
   113     6     9    1
   114     2     1    1
   115     9    10    1
   116    10    11    1
   117    11    12    1
   118    12    13    2
   119    14    13    1
   120    13    15    1
