@<TRIPOS>MOLECULE
tmp/3daoB00.pdb
 90 84 0 0 0
SMALL
GASTEIGER

@<TRIPOS>ATOM
      1  N        -27.9860    0.8620    3.2120 N.3    17  ASP17      -0.1225
      2  CA       -27.2620   -0.0950    2.3590 C.3    17  ASP17       0.1805
      3  C        -27.1450   -1.3880    3.1500 C.2    17  ASP17       0.2598
      4  O        -27.6890   -1.5270    4.2690 O.2    17  ASP17      -0.2718
      5  CB       -25.9640    0.3930    1.7160 C.3    17  ASP17       0.1424
      6  CG       -24.8510    0.6860    2.7070 C.2    17  ASP17       0.3668
      7  OD1      -25.0890    0.8690    3.8970 O.co2  17  ASP17      -0.2456
      8  OD2      -23.6920    0.7370    2.2600 O.co2  17  ASP17      -0.2456
      9  N        -26.4690   -2.3440    2.5270 N.am   18  ILE18      -0.1966
     10  CA       -26.4400   -3.7270    3.0130 C.3    18  ILE18       0.1727
     11  C        -25.0860   -4.2480    3.4650 C.2    18  ILE18       0.2616
     12  O        -24.8670   -4.5160    4.6560 O.2    18  ILE18      -0.2715
     13  CB       -26.9890   -4.6900    1.9470 C.3    18  ILE18       0.0290
     14  CG1      -28.4510   -4.3460    1.6390 C.3    18  ILE18       0.0022
     15  CG2      -26.9050   -6.1520    2.4490 C.3    18  ILE18       0.0023
     16  CD1      -29.0610   -5.1490    0.4430 C.3    18  ILE18       0.0001
     17  N        -24.1730   -4.3650    2.5220 N.am   19  ASP19      -0.1971
     18  CA       -22.8500   -4.9540    2.8270 C.3    19  ASP19       0.1709
     19  C        -21.9840   -4.1070    3.7080 C.2    19  ASP19       0.2293
     20  O        -21.5860   -3.0100    3.3550 O.2    19  ASP19      -0.2864
     21  CB       -22.1380   -5.3590    1.5190 C.3    19  ASP19       0.1436
     22  CG       -22.8850   -6.4440    0.8070 C.2    19  ASP19       0.3671
     23  OD1      -23.0320   -7.5140    1.4240 O.co2  19  ASP19      -0.2456
     24  OD2      -23.3900   -6.2440   -0.3340 O.co2  19  ASP19      -0.2456
     25  N        -20.2540   -8.5910    4.3200 N.3    25  ASP25      -0.1239
     26  CA       -20.2660   -8.4890    2.8580 C.3    25  ASP25       0.1674
     27  C        -20.5090   -9.8350    2.1870 C.2    25  ASP25       0.2266
     28  O        -19.8370  -10.8470    2.4800 O.2    25  ASP25      -0.2867
     29  CB       -18.9390   -7.8920    2.3590 C.3    25  ASP25       0.1410
     30  CG       -18.8920   -7.7090    0.8470 C.2    25  ASP25       0.3668
     31  OD1      -19.8980   -7.2810    0.2240 O.co2  25  ASP25      -0.2456
     32  OD2      -17.8110   -7.9570    0.2690 O.co2  25  ASP25      -0.2456
     33  N        -28.3290   -0.2140   -2.2830 N.3    51  SER51      -0.1202
     34  CA       -27.0850   -0.9920   -2.3390 C.3    51  SER51       0.2020
     35  C        -26.4270   -1.2080   -3.7000 C.2    51  SER51       0.2619
     36  O        -27.0190   -1.0340   -4.7410 O.2    51  SER51      -0.2717
     37  CB       -27.4610   -2.3760   -1.7670 C.3    51  SER51       0.2103
     38  OG       -26.3750   -3.2640   -1.7890 O.3    51  SER51      -0.2182
     39  N        -25.1650   -1.6170   -3.6640 N.am   52  GLY52      -0.1942
     40  CA       -24.4880   -2.0260   -4.8840 C.3    52  GLY52       0.2014
     41  C        -24.9210   -3.3910   -5.3870 C.2    52  GLY52       0.2638
     42  O        -24.6590   -3.7670   -6.5400 O.2    52  GLY52      -0.2714
     43  N        -25.6620   -4.1180   -4.5650 N.am   53  ARG53      -0.1977
     44  CA       -26.1250   -5.4380   -4.9650 C.3    53  ARG53       0.1597
     45  C        -27.1180   -5.4270   -6.1020 C.2    53  ARG53       0.2287
     46  O        -27.7940   -4.4750   -6.3250 O.2    53  ARG53      -0.2864
     47  CB       -26.8220   -6.1870   -3.8280 C.3    53  ARG53       0.0334
     48  CG       -25.9340   -6.6010   -2.6970 C.3    53  ARG53       0.0492
     49  CD       -26.6940   -7.4500   -1.7070 C.3    53  ARG53       0.2205
     50  NE       -25.8260   -7.8850   -0.6180 N.pl3  53  ARG53      -0.0865
     51  CZ       -26.0200   -8.9880    0.1210 C.cat  53  ARG53       0.5346
     52  NH1      -26.9910   -9.8170   -0.1560 N.pl3  53  ARG53       0.1354
     53  NH2      -25.1870   -9.2800    1.1130 N.pl3  53  ARG53       0.1354
     54  N        -25.9980    0.0700   -7.1590 N.3    75  GLY75      -0.1225
     55  CA       -25.3630    1.3060   -6.8040 C.3    75  GLY75       0.1811
     56  C        -26.0780    2.5290   -7.2700 C.2    75  GLY75       0.2280
     57  O        -25.5250    3.6400   -7.2660 O.2    75  GLY75      -0.2866
     58  N        -25.9710    6.4900   -5.5170 N.3   197  LYS197     -0.1245
     59  CA       -27.0120    6.1540   -4.5180 C.3   197  LYS197      0.1561
     60  C        -27.9100    7.3540   -4.2070 C.2   197  LYS197      0.2260
     61  O        -29.1370    7.2440   -4.1360 O.2   197  LYS197     -0.2867
     62  CB       -26.4220    5.6200   -3.2300 C.3   197  LYS197      0.0271
     63  CG       -25.7690    4.2320   -3.3800 C.3   197  LYS197      0.0035
     64  CD       -25.1360    3.8340   -2.0710 C.3   197  LYS197      0.0206
     65  CE       -24.7950    2.3610   -2.1390 C.3   197  LYS197      0.1093
     66  NZ       -24.0800    1.7970   -0.9260 N.3   197  LYS197     -0.1314
     67  N        -19.8300    2.7520    3.6890 N.3   221  ASN221     -0.1225
     68  CA       -18.8490    2.9080    2.6230 C.3   221  ASN221      0.1785
     69  C        -18.7820    4.2650    1.9320 C.2   221  ASN221      0.2597
     70  O        -19.6750    5.0940    2.0190 O.2   221  ASN221     -0.2718
     71  CB       -19.0730    1.7810    1.6080 C.3   221  ASN221      0.1169
     72  CG       -19.2960    0.4410    2.2790 C.2   221  ASN221      0.2627
     73  OD1      -18.4150   -0.4180    2.3430 O.2   221  ASN221     -0.2716
     74  ND2      -20.4900    0.2700    2.8360 N.am  221  ASN221     -0.0877
     75  N        -17.6940    4.4560    1.2290 N.am  222  LEU222     -0.1966
     76  CA       -17.4390    5.7100    0.5520 C.3   222  LEU222      0.1728
     77  C        -18.6020    6.1480   -0.3020 C.2   222  LEU222      0.2616
     78  O        -18.9800    7.3230   -0.3160 O.2   222  LEU222     -0.2715
     79  CB       -16.1360    5.5840   -0.2600 C.3   222  LEU222      0.0311
     80  CG       -15.1310    6.6620   -0.2990 C.3   222  LEU222      0.0022
     81  CD1      -14.7950    7.0270    1.1280 C.3   222  LEU222      0.0001
     82  CD2      -13.9290    6.0370   -1.0720 C.3   222  LEU222      0.0001
     83  N        -19.2510    5.1940   -0.9630 N.am  223  ASN223     -0.1972
     84  CA       -20.3230    5.5780   -1.8800 C.3   223  ASN223      0.1688
     85  C        -21.6250    5.9400   -1.1770 C.2   223  ASN223      0.2292
     86  O        -22.6240    6.3030   -1.8090 O.2   223  ASN223     -0.2864
     87  CB       -20.5260    4.5900   -2.9960 C.3   223  ASN223      0.1181
     88  CG       -20.9400    3.2810   -2.5270 C.2   223  ASN223      0.2629
     89  OD1      -21.3290    3.0930   -1.3740 O.2   223  ASN223     -0.2716
     90  ND2      -20.8180    2.3000   -3.4140 N.am  223  ASN223     -0.0877
@<TRIPOS>BOND
     1    56    57    2
     2    56    55    1
     3    54    55    1
     4    42    41    2
     5    46    45    2
     6    45    44    1
     7    58    59    1
     8    41    40    1
     9    41    43   am
    10    44    43    1
    11    44    47    1
    12    40    39    1
    13    36    35    2
    14    59    60    1
    15    59    62    1
    16    60    61    2
    17    47    48    1
    18    35    39   am
    19    35    34    1
    20    90    88   am
    21    63    62    1
    22    63    64    1
    23    87    88    1
    24    87    84    1
    25    48    49    1
    26    88    89    2
    27    34    33    1
    28    34    37    1
    29    65    64    1
    30    65    66    1
    31    84    85    1
    32    84    83    1
    33    86    85    2
    34    38    37    1
    35    49    50    1
    36    82    80    1
    37    83    77   am
    38    50    51    2
    39    24    22   ar
    40    78    77    2
    41    77    76    1
    42    80    79    1
    43    80    81    1
    44    79    76    1
    45    52    51    1
    46    51    53    1
    47    31    30   ar
    48    32    30   ar
    49    16    14    1
    50    76    75    1
    51    22    23   ar
    52    22    21    1
    53    30    29    1
    54    75    69   am
    55    21    18    1
    56    71    72    1
    57    71    68    1
    58    14    13    1
    59     5     2    1
    60     5     6    1
    61    69    70    2
    62    69    68    1
    63    13    15    1
    64    13    10    1
    65    27    28    2
    66    27    26    1
    67     8     6   ar
    68    72    73    2
    69    72    74   am
    70    29    26    1
    71     2     3    1
    72     2     1    1
    73    17    18    1
    74    17    11   am
    75     9    10    1
    76     9     3   am
    77    68    67    1
    78     6     7   ar
    79    18    19    1
    80    26    25    1
    81    10    11    1
    82     3     4    2
    83    20    19    2
    84    11    12    2
