@<TRIPOS>MOLECULE
tmp/3dapB01.pdb
 126 123 0 0 0
SMALL
GASTEIGER

@<TRIPOS>ATOM
      1  N         19.1090   33.4290   36.8340 N.3    90  ASP90      -0.1239
      2  CA        18.1940   34.4370   37.3290 C.3    90  ASP90       0.1674
      3  C         18.5530   35.3370   38.5160 C.2    90  ASP90       0.2266
      4  O         17.6590   35.9560   39.0800 O.2    90  ASP90      -0.2867
      5  CB        16.8280   33.7960   37.5630 C.3    90  ASP90       0.1410
      6  CG        16.8700   32.6600   38.5670 C.2    90  ASP90       0.3668
      7  OD1       17.8450   32.5660   39.3330 O.co2  90  ASP90      -0.2456
      8  OD2       15.9110   31.8580   38.5910 O.co2  90  ASP90      -0.2456
      9  N         19.4550   38.4510   39.2340 N.3    92  HIS92      -0.1241
     10  CA        19.4970   39.7520   38.5740 C.3    92  HIS92       0.1621
     11  C         20.6580   40.6760   38.9410 C.2    92  HIS92       0.2264
     12  O         21.2520   41.3050   38.0640 O.2    92  HIS92      -0.2867
     13  CB        18.1720   40.4830   38.7940 C.3    92  HIS92       0.0745
     14  CG        16.9990   39.7980   38.1760 C.ar   92  HIS92       0.0817
     15  ND1       16.6360   39.9880   36.8620 N.ar   92  HIS92      -0.2268
     16  CD2       16.1160   38.9060   38.6830 C.ar   92  HIS92       0.1154
     17  CE1       15.5850   39.2390   36.5830 C.ar   92  HIS92       0.1986
     18  NE2       15.2530   38.5720   37.6700 N.ar   92  HIS92      -0.2212
     19  N         11.7730   33.1750   31.2190 N.3   119  TRP119     -0.1227
     20  CA        10.6780   34.1460   31.2740 C.3   119  TRP119      0.1737
     21  C         10.9860   35.3450   32.1860 C.2   119  TRP119      0.2595
     22  O         10.4740   36.4360   31.9630 O.2   119  TRP119     -0.2718
     23  CB         9.3130   33.5010   31.5530 C.3   119  TRP119      0.0564
     24  CG         9.1550   32.7320   32.8110 C.ar  119  TRP119      0.0003
     25  CD1        9.5990   31.4680   33.0560 C.ar  119  TRP119      0.0946
     26  CD2        8.3820   33.1170   33.9570 C.ar  119  TRP119      0.0152
     27  NE1        9.1380   31.0320   34.2790 N.ar  119  TRP119     -0.2442
     28  CE2        8.3880   32.0240   34.8520 C.ar  119  TRP119      0.0810
     29  CE3        7.6760   34.2760   34.3100 C.ar  119  TRP119      0.0012
     30  CZ2        7.7160   32.0540   36.0830 C.ar  119  TRP119      0.0191
     31  CZ3        7.0100   34.3070   35.5310 C.ar  119  TRP119      0.0001
     32  CH2        7.0340   33.2010   36.4040 C.ar  119  TRP119      0.0015
     33  N         11.7910   35.1260   33.2230 N.am  120  ASP120     -0.1974
     34  CA        12.2510   36.2040   34.1010 C.3   120  ASP120      0.1709
     35  C         13.5010   35.8080   34.8990 C.2   120  ASP120      0.2293
     36  O         13.4190   35.0610   35.8650 O.2   120  ASP120     -0.2864
     37  CB        11.1670   36.7410   35.0350 C.3   120  ASP120      0.1436
     38  CG        11.4520   38.1790   35.4860 C.2   120  ASP120      0.3671
     39  OD1       12.5280   38.7290   35.1730 O.co2 120  ASP120     -0.2456
     40  OD2       10.5870   38.7820   36.1440 O.co2 120  ASP120     -0.2456
     41  N          4.8650   38.3170   40.0720 N.3   144  TRP144     -0.1241
     42  CA         5.0670   36.8920   39.8730 C.3   144  TRP144      0.1605
     43  C          4.0990   36.0800   40.6930 C.2   144  TRP144      0.2264
     44  O          3.8790   36.3630   41.8730 O.2   144  TRP144     -0.2867
     45  CB         6.4660   36.4570   40.3100 C.3   144  TRP144      0.0550
     46  CG         7.5700   37.1920   39.6920 C.ar  144  TRP144      0.0003
     47  CD1        7.9600   37.1350   38.3990 C.ar  144  TRP144      0.0946
     48  CD2        8.4490   38.1100   40.3450 C.ar  144  TRP144      0.0152
     49  NE1        9.0310   37.9650   38.1950 N.ar  144  TRP144     -0.2442
     50  CE2        9.3530   38.5750   39.3790 C.ar  144  TRP144      0.0810
     51  CE3        8.5550   38.5870   41.6550 C.ar  144  TRP144      0.0012
     52  CZ2       10.3610   39.4970   39.6800 C.ar  144  TRP144      0.0191
     53  CZ3        9.5550   39.5050   41.9560 C.ar  144  TRP144      0.0001
     54  CH2       10.4430   39.9490   40.9760 C.ar  144  TRP144      0.0015
     55  N          8.4890   28.8290   42.2620 N.3   149  SER149     -0.1202
     56  CA         9.6990   29.3990   41.6860 C.3   149  SER149      0.2020
     57  C         10.8490   28.3970   41.7700 C.2   149  SER149      0.2619
     58  O         11.3090   28.0710   42.8770 O.2   149  SER149     -0.2717
     59  CB        10.0820   30.6800   42.4210 C.3   149  SER149      0.2103
     60  OG        11.3300   31.1410   41.9670 O.3   149  SER149     -0.2182
     61  N         11.3000   27.9100   40.6060 N.am  150  GLN150     -0.1965
     62  CA        12.4010   26.9420   40.5230 C.3   150  GLN150      0.1733
     63  C         13.7280   27.4150   41.1160 C.2   150  GLN150      0.2617
     64  O         14.4960   26.6100   41.6420 O.2   150  GLN150     -0.2715
     65  CB        12.6400   26.5180   39.0740 C.3   150  GLN150      0.0408
     66  CG        11.6090   25.5600   38.5030 C.3   150  GLN150      0.0908
     67  CD        11.8630   25.2380   37.0400 C.2   150  GLN150      0.2608
     68  OE1       11.2160   25.7870   36.1590 O.2   150  GLN150     -0.2717
     69  NE2       12.8060   24.3400   36.7770 N.am  150  GLN150     -0.0878
     70  N         14.0340   28.7000   40.9500 N.am  151  GLY151     -0.1940
     71  CA        15.2770   29.2470   41.4690 C.3   151  GLY151      0.2014
     72  C         15.3110   29.3210   42.9810 C.2   151  GLY151      0.2638
     73  O         16.3330   29.0590   43.6160 O.2   151  GLY151     -0.2714
     74  N         14.1940   29.7150   43.5710 N.am  152  HIS152     -0.1973
     75  CA        14.0970   29.8060   45.0130 C.3   152  HIS152      0.1656
     76  C         13.9860   28.4080   45.6220 C.2   152  HIS152      0.2291
     77  O         14.4840   28.1650   46.7260 O.2   152  HIS152     -0.2864
     78  CB        12.8990   30.6590   45.3850 C.3   152  HIS152      0.0771
     79  CG        13.0060   32.0700   44.9070 C.ar  152  HIS152      0.0820
     80  ND1       13.4390   33.0990   45.7170 N.ar  152  HIS152     -0.2267
     81  CD2       12.7830   32.6180   43.6910 C.ar  152  HIS152      0.1154
     82  CE1       13.4830   34.2180   45.0160 C.ar  152  HIS152      0.1986
     83  NE2       13.0910   33.9520   43.7830 N.ar  152  HIS152     -0.2212
     84  N          5.6760   32.0150   45.2780 N.3   169  THR169     -0.1218
     85  CA         5.7060   33.4640   45.2830 C.3   169  THR169      0.1862
     86  C          4.2700   33.9570   45.2320 C.2   169  THR169      0.2287
     87  O          3.5140   33.6380   44.3000 O.2   169  THR169     -0.2866
     88  CB         6.4640   34.0000   44.0850 C.3   169  THR169      0.1770
     89  OG1        7.7320   33.3420   44.0070 O.3   169  THR169     -0.2211
     90  CG2        6.6810   35.5000   44.2370 C.3   169  THR169      0.0375
     91  N          6.9310   35.4520   50.0720 N.3   195  ARG195     -0.1245
     92  CA         7.5960   34.2050   49.7170 C.3   195  ARG195      0.1563
     93  C          7.3270   33.1730   50.8110 C.2   195  ARG195      0.2260
     94  O          7.7260   33.3620   51.9620 O.2   195  ARG195     -0.2867
     95  CB         9.1020   34.4240   49.5650 C.3   195  ARG195      0.0307
     96  CG         9.4710   35.7590   48.9570 C.3   195  ARG195      0.0489
     97  CD        10.7490   35.6850   48.1580 C.3   195  ARG195      0.2205
     98  NE        10.4730   35.0990   46.8630 N.pl3 195  ARG195     -0.0865
     99  CZ        10.6270   35.7270   45.7120 C.cat 195  ARG195      0.5346
    100  NH1       11.0770   36.9670   45.6730 N.pl3 195  ARG195      0.1354
    101  NH2       10.2700   35.1250   44.6020 N.pl3 195  ARG195      0.1354
    102  N          2.9820   28.4310   37.4990 N.3   244  HIS244     -0.1241
    103  CA         3.5240   29.7580   37.7590 C.3   244  HIS244      0.1621
    104  C          3.0620   30.7060   36.6700 C.2   244  HIS244      0.2264
    105  O          2.4300   30.2940   35.6940 O.2   244  HIS244     -0.2867
    106  CB         5.0570   29.7260   37.8330 C.3   244  HIS244      0.0745
    107  CG         5.6440   30.7230   38.7840 C.ar  244  HIS244      0.0817
    108  ND1        4.8910   31.6940   39.4110 N.ar  244  HIS244     -0.2268
    109  CD2        6.9080   30.8680   39.2520 C.ar  244  HIS244      0.1154
    110  CE1        5.6630   32.3860   40.2320 C.ar  244  HIS244      0.1986
    111  NE2        6.8910   31.9060   40.1540 N.ar  244  HIS244     -0.2212
    112  N          6.0460   25.4260   34.8810 N.3   270  ASN270     -0.1240
    113  CA         7.1780   26.3640   34.7730 C.3   270  ASN270      0.1653
    114  C          8.3770   25.7630   34.0010 C.2   270  ASN270      0.2266
    115  O          8.8470   26.3490   33.0270 O.2   270  ASN270     -0.2867
    116  CB         7.5840   26.8120   36.1910 C.3   270  ASN270      0.1155
    117  CG         8.5980   27.9440   36.2040 C.2   270  ASN270      0.2627
    118  OD1        9.1920   28.2840   35.1900 O.2   270  ASN270     -0.2716
    119  ND2        8.7720   28.5490   37.3700 N.am  270  ASN270     -0.0877
    120  N          9.8910   27.5040   30.4240 N.3   274  THR274     -0.1218
    121  CA        11.2750   27.9520   30.5440 C.3   274  THR274      0.1862
    122  C         12.1320   27.1920   29.5190 C.2   274  THR274      0.2287
    123  O         12.9640   27.7790   28.8290 O.2   274  THR274     -0.2866
    124  CB        11.7960   27.6570   31.9530 C.3   274  THR274      0.1770
    125  OG1       11.0160   28.3810   32.8970 O.3   274  THR274     -0.2211
    126  CG2       13.2300   28.0710   32.1030 C.3   274  THR274      0.0375
@<TRIPOS>BOND
     1   123   122    2
     2   122   121    1
     3   120   121    1
     4   121   124    1
     5    19    20    1
     6    20    23    1
     7    20    21    1
     8    23    24    1
     9   124   126    1
    10   124   125    1
    11    22    21    2
    12    21    33   am
    13    24    25   ar
    14    24    26   ar
    15   115   114    2
    16    25    27   ar
    17    33    34    1
    18    26    29   ar
    19    26    28   ar
    20   114   113    1
    21    34    35    1
    22    34    37    1
    23    27    28   ar
    24    29    31   ar
    25   113   112    1
    26   113   116    1
    27    28    30   ar
    28    35    36    2
    29    37    38    1
    30    39    38   ar
    31   118   117    2
    32    38    40   ar
    33    31    32   ar
    34   105   104    2
    35    30    32   ar
    36    68    67    2
    37   116   117    1
    38   117   119   am
    39    17    15   ar
    40    17    18   ar
    41   104   103    1
    42    69    67   am
    43     1     2    1
    44    15    14   ar
    45    67    66    1
    46     2     5    1
    47     2     3    1
    48   102   103    1
    49     5     6    1
    50    18    16   ar
    51   103   106    1
    52   106   107    1
    53    12    11    2
    54    14    16   ar
    55    14    13    1
    56    49    47   ar
    57    49    50   ar
    58    47    46   ar
    59    66    65    1
    60     3     4    2
    61     6     8   ar
    62     6     7   ar
    63    10    13    1
    64    10    11    1
    65    10     9    1
    66   107   109   ar
    67   107   108   ar
    68    65    62    1
    69   109   111   ar
    70    50    52   ar
    71    50    48   ar
    72   108   110   ar
    73    52    54   ar
    74    46    45    1
    75    46    48   ar
    76    42    41    1
    77    42    45    1
    78    42    43    1
    79   111   110   ar
    80    48    51   ar
    81    62    61    1
    82    62    63    1
    83    61    57   am
    84    43    44    2
    85    70    63   am
    86    70    71    1
    87    54    53   ar
    88    63    64    2
    89    71    72    1
    90    51    53   ar
    91    56    57    1
    92    56    55    1
    93    56    59    1
    94    57    58    2
    95    60    59    1
    96    72    74   am
    97    72    73    2
    98    74    75    1
    99    81    83   ar
   100    81    79   ar
   101    83    82   ar
   102    89    88    1
   103    88    90    1
   104    88    85    1
   105    87    86    2
   106   101    99    1
   107    79    78    1
   108    79    80   ar
   109    75    78    1
   110    75    76    1
   111    82    80   ar
   112    86    85    1
   113    84    85    1
   114    76    77    2
   115   100    99    1
   116    99    98    2
   117    98    97    1
   118    97    96    1
   119    96    95    1
   120    95    92    1
   121    92    91    1
   122    92    93    1
   123    93    94    2
