@<TRIPOS>MOLECULE
tmp/3dasA02.pdb
 185 174 0 0 0
SMALL
GASTEIGER

@<TRIPOS>ATOM
      1  N         26.0180   17.2850   56.8750 N.3    22  TRP22      -0.1241
      2  CA        26.2120   17.4710   58.3010 C.3    22  TRP22       0.1605
      3  C         25.7850   18.8770   58.7120 C.2    22  TRP22       0.2264
      4  O         24.7070   19.0570   59.2820 O.2    22  TRP22      -0.2867
      5  CB        27.6710   17.1750   58.6630 C.3    22  TRP22       0.0550
      6  CG        27.8630   16.5970   60.0480 C.ar   22  TRP22       0.0003
      7  CD1       28.1810   15.3000   60.3550 C.ar   22  TRP22       0.0946
      8  CD2       27.7580   17.2930   61.3070 C.ar   22  TRP22       0.0152
      9  NE1       28.2780   15.1430   61.7200 N.ar   22  TRP22      -0.2442
     10  CE2       28.0370   16.3490   62.3280 C.ar   22  TRP22       0.0810
     11  CE3       27.4730   18.6210   61.6730 C.ar   22  TRP22       0.0012
     12  CZ2       28.0310   16.6880   63.6910 C.ar   22  TRP22       0.0191
     13  CZ3       27.4690   18.9580   63.0320 C.ar   22  TRP22       0.0001
     14  CH2       27.7430   17.9930   64.0210 C.ar   22  TRP22       0.0015
     15  N         30.5890   15.6010   55.6460 N.3    37  ARG37      -0.1245
     16  CA        31.5700   15.2070   56.6530 C.3    37  ARG37       0.1563
     17  C         32.7600   14.4960   56.0300 C.2    37  ARG37       0.2260
     18  O         33.9090   14.7880   56.3630 O.2    37  ARG37      -0.2867
     19  CB        30.9600   14.3130   57.7310 C.3    37  ARG37       0.0307
     20  CG        31.9060   14.0330   58.8840 C.3    37  ARG37       0.0489
     21  CD        31.3390   12.9420   59.7780 C.3    37  ARG37       0.2205
     22  NE        31.2740   11.6740   59.0520 N.pl3  37  ARG37      -0.0865
     23  CZ        30.5170   10.6420   59.4060 C.cat  37  ARG37       0.5346
     24  NH1       29.7310   10.7060   60.4830 N.pl3  37  ARG37       0.1354
     25  NH2       30.5330    9.5440   58.6600 N.pl3  37  ARG37       0.1354
     26  N         33.3210    9.3740   63.4190 N.3    66  GLU66      -0.1245
     27  CA        32.3500   10.4720   63.5440 C.3    66  GLU66       0.1567
     28  C         32.9680   11.8340   63.2320 C.2    66  GLU66       0.2260
     29  O         32.2760   12.8630   63.2340 O.2    66  GLU66      -0.2867
     30  CB        31.7590   10.4780   64.9550 C.3    66  GLU66       0.0388
     31  CG        30.9590    9.2170   65.2650 C.3    66  GLU66       0.1160
     32  CD        30.5980    9.0580   66.7290 C.2    66  GLU66       0.3649
     33  OE1       30.7870   10.0050   67.5270 O.co2  66  GLU66      -0.2457
     34  OE2       30.0980    7.9660   67.0760 O.co2  66  GLU66      -0.2457
     35  N         32.8340   10.9140   69.2850 N.3   125  HIS125     -0.1241
     36  CA        32.5690   12.0030   70.2310 C.3   125  HIS125      0.1621
     37  C         33.3820   13.2520   69.9690 C.2   125  HIS125      0.2264
     38  O         34.1230   13.7360   70.8360 O.2   125  HIS125     -0.2867
     39  CB        32.7090   11.5370   71.6910 C.3   125  HIS125      0.0745
     40  CG        31.7960   10.4080   72.0510 C.ar  125  HIS125      0.0817
     41  ND1       31.8530    9.7830   73.2730 N.ar  125  HIS125     -0.2268
     42  CD2       30.8330    9.7670   71.3420 C.ar  125  HIS125      0.1154
     43  CE1       30.9490    8.8190   73.3160 C.ar  125  HIS125      0.1986
     44  NE2       30.3180    8.7850   72.1550 N.ar  125  HIS125     -0.2212
     45  N         28.6090   14.8090   77.2840 N.3   185  ARG185     -0.1231
     46  CA        29.1880   13.6380   76.6410 C.3   185  ARG185      0.1694
     47  C         29.5510   13.9430   75.1770 C.2   185  ARG185      0.2592
     48  O         30.7090   13.8540   74.7760 O.2   185  ARG185     -0.2718
     49  CB        28.2160   12.4550   76.7420 C.3   185  ARG185      0.0321
     50  CG        28.7550   11.1530   76.1510 C.3   185  ARG185      0.0489
     51  CD        27.8090   10.0220   76.4900 C.3   185  ARG185      0.2205
     52  NE        28.1570    8.7610   75.8290 N.pl3 185  ARG185     -0.0865
     53  CZ        27.8850    8.4850   74.5560 C.cat 185  ARG185      0.5346
     54  NH1       27.2660    9.3890   73.7960 N.pl3 185  ARG185      0.1354
     55  NH2       28.2320    7.3030   74.0410 N.pl3 185  ARG185      0.1354
     56  N         28.5520   14.3160   74.3870 N.am  186  ASN186     -0.1974
     57  CA        28.7490   14.5880   72.9730 C.3   186  ASN186      0.1688
     58  C         27.5740   15.4180   72.5090 C.2   186  ASN186      0.2292
     59  O         26.4220   14.9630   72.5550 O.2   186  ASN186     -0.2864
     60  CB        28.8310   13.2800   72.1620 C.3   186  ASN186      0.1181
     61  CG        29.3870   13.4960   70.7500 C.2   186  ASN186      0.2629
     62  OD1       30.1560   14.4300   70.5170 O.2   186  ASN186     -0.2716
     63  ND2       29.0180   12.6170   69.8140 N.am  186  ASN186     -0.0877
     64  N         25.7720   17.7100   69.6210 N.3   188  GLN188     -0.1245
     65  CA        25.6610   18.0190   68.1930 C.3   188  GLN188      0.1566
     66  C         24.4160   18.8320   67.8330 C.2   188  GLN188      0.2260
     67  O         24.0090   18.8570   66.6680 O.2   188  GLN188     -0.2867
     68  CB        25.6910   16.7310   67.3580 C.3   188  GLN188      0.0367
     69  CG        27.0240   15.9680   67.3830 C.3   188  GLN188      0.0905
     70  CD        27.0220   14.7700   66.4420 C.2   188  GLN188      0.2608
     71  OE1       26.0680   14.5420   65.6770 O.2   188  GLN188     -0.2717
     72  NE2       28.0910   13.9860   66.4980 N.am  188  GLN188     -0.0878
     73  N         23.9190   13.1440   73.0010 N.3   203  PHE203     -0.1227
     74  CA        23.8860   11.6750   72.9560 C.3   203  PHE203      0.1736
     75  C         24.2480   11.1090   74.3220 C.2   203  PHE203      0.2596
     76  O         25.3130   11.4240   74.8720 O.2   203  PHE203     -0.2718
     77  CB        24.9100   11.1170   71.9710 C.3   203  PHE203      0.0547
     78  CG        24.6940   11.5150   70.5350 C.ar  203  PHE203     -0.0202
     79  CD1       23.9500   10.7100   69.6810 C.ar  203  PHE203     -0.0042
     80  CD2       25.3160   12.6620   70.0160 C.ar  203  PHE203     -0.0042
     81  CE1       23.7860   11.0660   68.3170 C.ar  203  PHE203     -0.0003
     82  CE2       25.1600   13.0240   68.6630 C.ar  203  PHE203     -0.0003
     83  CZ        24.4080   12.2120   67.8110 C.ar  203  PHE203     -0.0000
     84  N         23.3750   10.2530   74.8500 N.am  204  GLY204     -0.1942
     85  CA        23.7210    9.4190   75.9970 C.3   204  GLY204      0.2014
     86  C         24.4760    8.1770   75.5620 C.2   204  GLY204      0.2639
     87  O         24.7390    7.9780   74.3650 O.2   204  GLY204     -0.2714
     88  N         24.8010    7.3260   76.5290 N.am  205  GLN205     -0.1963
     89  CA        25.5430    6.1100   76.2230 C.3   205  GLN205      0.1733
     90  C         24.5560    5.0700   75.7210 C.2   205  GLN205      0.2616
     91  O         24.2670    5.0380   74.5260 O.2   205  GLN205     -0.2715
     92  CB        26.3490    5.6380   77.4300 C.3   205  GLN205      0.0408
     93  CG        27.2450    4.4530   77.1120 C.3   205  GLN205      0.0908
     94  CD        28.2640    4.2050   78.1940 C.2   205  GLN205      0.2608
     95  OE1       29.2200    4.9650   78.3480 O.2   205  GLN205     -0.2717
     96  NE2       28.0700    3.1280   78.9510 N.am  205  GLN205     -0.0878
     97  N         24.0140    4.2510   76.6220 N.am  206  ASP206     -0.1971
     98  CA        23.0470    3.2240   76.2450 C.3   206  ASP206      0.1709
     99  C         21.6960    3.4240   76.9060 C.2   206  ASP206      0.2293
    100  O         20.7790    2.6310   76.6750 O.2   206  ASP206     -0.2864
    101  CB        23.5850    1.8330   76.6190 C.3   206  ASP206      0.1436
    102  CG        24.9300    1.5540   76.0040 C.2   206  ASP206      0.3671
    103  OD1       25.0930    1.8120   74.7970 O.co2 206  ASP206     -0.2456
    104  OD2       25.8340    1.0910   76.7290 O.co2 206  ASP206     -0.2456
    105  N         19.4200    9.6820   76.0930 N.3   209  ASP209     -0.1239
    106  CA        19.7570   10.9070   75.3690 C.3   209  ASP209      0.1674
    107  C         19.0450   12.0730   76.0310 C.2   209  ASP209      0.2266
    108  O         18.0660   11.8840   76.7510 O.2   209  ASP209     -0.2867
    109  CB        19.3380   10.7910   73.9110 C.3   209  ASP209      0.1410
    110  CG        20.0110    9.6350   73.2160 C.2   209  ASP209      0.3668
    111  OD1       21.2440    9.4800   73.3830 O.co2 209  ASP209     -0.2456
    112  OD2       19.3060    8.8990   72.4950 O.co2 209  ASP209     -0.2456
    113  N         17.9880    5.4580   73.8600 N.3   243  THR243     -0.1218
    114  CA        18.9310    5.6710   72.7610 C.3   243  THR243      0.1862
    115  C         18.4340    5.1170   71.4170 C.2   243  THR243      0.2287
    116  O         18.7700    5.6400   70.3520 O.2   243  THR243     -0.2866
    117  CB        20.3260    5.1650   73.1280 C.3   243  THR243      0.1770
    118  OG1       20.2530    3.7770   73.4790 O.3   243  THR243     -0.2211
    119  CG2       20.8750    5.9800   74.3340 C.3   243  THR243      0.0375
    120  N         18.9470    9.1360   69.8120 N.3   247  SER247     -0.1217
    121  CA        20.3470    9.3830   69.4410 C.3   247  SER247      0.1889
    122  C         20.4070   10.6700   68.6060 C.2   247  SER247      0.2288
    123  O         20.6160   10.6350   67.3790 O.2   247  SER247     -0.2866
    124  CB        20.9890    8.1730   68.7440 C.3   247  SER247      0.2089
    125  OG        21.0690    7.0500   69.6200 O.3   247  SER247     -0.2183
    126  N         19.1030   10.1750   64.9070 N.3   262  LEU262     -0.1231
    127  CA        19.8640    9.2950   64.0190 C.3   262  LEU262      0.1693
    128  C         19.3350    7.8730   64.1450 C.2   262  LEU262      0.2591
    129  O         18.5160    7.4540   63.3250 O.2   262  LEU262     -0.2718
    130  CB        21.3800    9.3770   64.2850 C.3   262  LEU262      0.0284
    131  CG        22.0150   10.7060   63.8520 C.3   262  LEU262      0.0019
    132  CD1       23.4140   10.8830   64.4620 C.3   262  LEU262      0.0001
    133  CD2       22.0710   10.8240   62.3250 C.3   262  LEU262      0.0001
    134  N         19.7730    7.1410   65.1700 N.am  263  ARG263     -0.1980
    135  CA        19.2630    5.7920   65.3850 C.3   263  ARG263      0.1597
    136  C         17.7370    5.7750   65.5000 C.2   263  ARG263      0.2287
    137  O         17.0810    4.8420   65.0230 O.2   263  ARG263     -0.2864
    138  CB        19.9070    5.1530   66.6120 C.3   263  ARG263      0.0334
    139  CG        19.5180    3.7010   66.7740 C.3   263  ARG263      0.0492
    140  CD        20.1520    3.0890   67.9870 C.3   263  ARG263      0.2205
    141  NE        19.4740    1.8460   68.3490 N.pl3 263  ARG263     -0.0865
    142  CZ        19.7820    1.1040   69.4090 C.cat 263  ARG263      0.5346
    143  NH1       20.7740    1.4690   70.2050 N.pl3 263  ARG263      0.1354
    144  NH2       19.1110   -0.0110   69.6690 N.pl3 263  ARG263      0.1354
    145  N         17.7340    7.6600   58.9690 N.3   291  ARG291     -0.1245
    146  CA        18.4400    8.4830   59.9580 C.3   291  ARG291      0.1563
    147  C         18.2990    9.9670   59.6580 C.2   291  ARG291      0.2260
    148  O         18.3840   10.3840   58.4960 O.2   291  ARG291     -0.2867
    149  CB        19.9200    8.1020   59.9720 C.3   291  ARG291      0.0307
    150  CG        20.1710    6.6460   60.3890 C.3   291  ARG291      0.0489
    151  CD        21.5820    6.1920   60.0130 C.3   291  ARG291      0.2205
    152  NE        22.6630    6.9520   60.6480 N.pl3 291  ARG291     -0.0865
    153  CZ        23.0020    6.8660   61.9370 C.cat 291  ARG291      0.5346
    154  NH1       22.3190    6.0850   62.7740 N.pl3 291  ARG291      0.1354
    155  NH2       24.0140    7.5900   62.4030 N.pl3 291  ARG291      0.1354
    156  N         19.7890   13.8120   60.7320 N.3   293  ARG293     -0.1245
    157  CA        20.9190   14.4390   61.4210 C.3   293  ARG293      0.1563
    158  C         20.7390   15.9140   61.7470 C.2   293  ARG293      0.2260
    159  O         21.1800   16.3820   62.7980 O.2   293  ARG293     -0.2867
    160  CB        22.2310   14.2430   60.6570 C.3   293  ARG293      0.0307
    161  CG        23.4170   14.8720   61.4070 C.3   293  ARG293      0.0489
    162  CD        24.7240   14.5650   60.7710 C.3   293  ARG293      0.2205
    163  NE        25.0640   13.1510   60.8130 N.pl3 293  ARG293     -0.0865
    164  CZ        25.7040   12.5420   61.8140 C.cat 293  ARG293      0.5346
    165  NH1       26.0350   13.2080   62.9260 N.pl3 293  ARG293      0.1354
    166  NH2       25.9830   11.2450   61.7020 N.pl3 293  ARG293      0.1354
    167  N         26.0920    8.1660   56.2540 N.3   311  ASP311     -0.1239
    168  CA        27.1310    8.5150   57.2300 C.3   311  ASP311      0.1674
    169  C         27.8970    7.3020   57.7760 C.2   311  ASP311      0.2266
    170  O         28.6480    7.4310   58.7460 O.2   311  ASP311     -0.2867
    171  CB        26.5420    9.3440   58.3890 C.3   311  ASP311      0.1410
    172  CG        25.5680    8.5500   59.2630 C.2   311  ASP311      0.3668
    173  OD1       25.4620    7.3150   59.1010 O.co2 311  ASP311     -0.2456
    174  OD2       24.8890    9.1680   60.1230 O.co2 311  ASP311     -0.2456
    175  N         26.4470    4.5430   58.9860 N.3   313  ARG313     -0.1245
    176  CA        25.5960    3.7730   59.8970 C.3   313  ARG313      0.1563
    177  C         24.1780    3.6030   59.3850 C.2   313  ARG313      0.2260
    178  O         23.2960    3.1560   60.1230 O.2   313  ARG313     -0.2867
    179  CB        25.5910    4.4200   61.2850 C.3   313  ARG313      0.0307
    180  CG        26.9550    4.3710   61.9480 C.3   313  ARG313      0.0489
    181  CD        26.9600    5.0610   63.2910 C.3   313  ARG313      0.2205
    182  NE        28.3120    5.0440   63.8540 N.pl3 313  ARG313     -0.0865
    183  CZ        28.7110    5.8010   64.8750 C.cat 313  ARG313      0.5346
    184  NH1       27.8590    6.6310   65.4650 N.pl3 313  ARG313      0.1354
    185  NH2       29.9640    5.7280   65.3020 N.pl3 313  ARG313      0.1354
@<TRIPOS>BOND
     1    15    16    1
     2    17    18    2
     3    17    16    1
     4   167   168    1
     5    16    19    1
     6     1     2    1
     7   168   169    1
     8   168   171    1
     9    19    20    1
    10   169   170    2
    11     2     5    1
    12     2     3    1
    13   171   172    1
    14   148   147    2
    15    25    23    1
    16     5     6    1
    17     3     4    2
    18    20    21    1
    19   145   146    1
    20   175   176    1
    21    22    23    2
    22    22    21    1
    23   173   172   ar
    24   172   174   ar
    25   177   176    1
    26   177   178    2
    27    23    24    1
    28   147   146    1
    29   176   179    1
    30   146   149    1
    31   149   150    1
    32   151   150    1
    33   151   152    1
    34     6     7   ar
    35     6     8   ar
    36     7     9   ar
    37   152   153    2
    38   160   161    1
    39   160   157    1
    40   156   157    1
    41   162   163    1
    42   162   161    1
    43   163   164    2
    44   179   180    1
    45     8    11   ar
    46     8    10   ar
    47   157   158    1
    48    11    13   ar
    49   166   164    1
    50     9    10   ar
    51   158   159    2
    52   164   165    1
    53   153   155    1
    54   153   154    1
    55   180   181    1
    56   133   131    1
    57    10    12   ar
    58    13    14   ar
    59    28    29    2
    60    28    27    1
    61   181   182    1
    62   129   128    2
    63    26    27    1
    64    27    30    1
    65    12    14   ar
    66   131   130    1
    67   131   132    1
    68   182   183    2
    69   127   128    1
    70   127   130    1
    71   127   126    1
    72   128   134   am
    73   183   185    1
    74   183   184    1
    75    30    31    1
    76   137   136    2
    77   134   135    1
    78    31    32    1
    79   135   136    1
    80   135   138    1
    81    71    70    2
    82    70    72   am
    83    70    69    1
    84   138   139    1
    85    67    66    2
    86    32    34   ar
    87    32    33   ar
    88   139   140    1
    89    68    69    1
    90    68    65    1
    91   123   122    2
    92    83    81   ar
    93    83    82   ar
    94    66    65    1
    95   140   141    1
    96    65    64    1
    97    81    79   ar
    98   141   142    2
    99   122   121    1
   100    82    80   ar
   101   124   121    1
   102   124   125    1
   103    35    36    1
   104   142   144    1
   105   142   143    1
   106   121   120    1
   107    79    78   ar
   108    63    61   am
   109    37    36    1
   110    37    38    2
   111    80    78   ar
   112    36    39    1
   113   116   115    2
   114    62    61    2
   115    78    77    1
   116    61    60    1
   117    42    40   ar
   118    42    44   ar
   119   115   114    1
   120    39    40    1
   121    77    74    1
   122    40    41   ar
   123    44    43   ar
   124    60    57    1
   125   112   110   ar
   126    58    59    2
   127    58    57    1
   128   114   117    1
   129   114   113    1
   130    74    73    1
   131    74    75    1
   132    57    56    1
   133   117   118    1
   134   117   119    1
   135   110   111   ar
   136   110   109    1
   137    41    43   ar
   138    54    53    1
   139   109   106    1
   140    55    53    1
   141    75    84   am
   142    75    76    2
   143    87    86    2
   144    56    47   am
   145    91    90    2
   146    53    52    2
   147    48    47    2
   148   103   102   ar
   149    84    85    1
   150    47    46    1
   151   106   107    1
   152   106   105    1
   153    86    85    1
   154    86    88   am
   155    90    89    1
   156    90    97   am
   157    52    51    1
   158   102   101    1
   159   102   104   ar
   160   107   108    2
   161    50    51    1
   162    50    49    1
   163    89    88    1
   164    89    92    1
   165    98   101    1
   166    98    97    1
   167    98    99    1
   168    46    49    1
   169    46    45    1
   170   100    99    2
   171    93    92    1
   172    93    94    1
   173    94    95    2
   174    94    96   am
