@<TRIPOS>MOLECULE
tmp/3datA00.pdb
 211 205 0 0 0
SMALL
GASTEIGER

@<TRIPOS>ATOM
      1  N         -7.9160  -12.9180   14.8450 N.3     6  MET6       -0.1230
      2  CA        -6.7490  -12.1900   15.3070 C.3     6  MET6        0.1702
      3  C         -7.2820  -11.0060   16.0950 C.2     6  MET6        0.2592
      4  O         -7.8280  -10.1080   15.5030 O.2     6  MET6       -0.2718
      5  CB        -5.9760  -11.7170   14.0680 C.3     6  MET6        0.0401
      6  CG        -4.9320  -10.6390   14.2770 C.3     6  MET6        0.0596
      7  SD        -3.4890  -11.2440   15.1870 S.3     6  MET6       -0.1393
      8  CE        -2.8270  -12.4360   14.0230 C.3     6  MET6        0.0692
      9  N         -7.1640  -11.0200   17.4250 N.am    7  VAL7       -0.1966
     10  CA        -7.6340   -9.9180   18.2930 C.3     7  VAL7        0.1727
     11  C         -6.6050   -9.5000   19.4270 C.2     7  VAL7        0.2616
     12  O         -5.8740  -10.3370   19.9580 O.2     7  VAL7       -0.2715
     13  CB        -8.9830  -10.3000   18.9240 C.3     7  VAL7        0.0290
     14  CG1       -8.8820  -11.6170   19.7360 C.3     7  VAL7        0.0023
     15  CG2       -9.5800   -9.1420   19.7480 C.3     7  VAL7        0.0023
     16  N         -6.5390   -8.2060   19.7580 N.am    8  ALA8       -0.1977
     17  CA        -5.9120   -7.7530   21.0090 C.3     8  ALA8        0.1597
     18  C         -7.0080   -7.3970   21.9980 C.2     8  ALA8        0.2287
     19  O         -7.9590   -6.7140   21.6250 O.2     8  ALA8       -0.2864
     20  CB        -5.0370   -6.5580   20.7580 C.3     8  ALA8        0.0319
     21  N        -11.3950    3.2740   17.7280 N.3    20  ASN20      -0.1225
     22  CA        -9.9580    3.2440   17.8830 C.3    20  ASN20       0.1785
     23  C         -9.5870    2.3230   19.0240 C.2    20  ASN20       0.2597
     24  O        -10.4310    1.9840   19.8680 O.2    20  ASN20      -0.2718
     25  CB        -9.4440    4.6560   18.2060 C.3    20  ASN20       0.1169
     26  CG        -8.7150    5.3020   17.0410 C.2    20  ASN20       0.2627
     27  OD1       -7.9620    4.6480   16.2990 O.2    20  ASN20      -0.2716
     28  ND2       -8.9110    6.6110   16.8880 N.am   20  ASN20      -0.0877
     29  N         -8.3260    1.9070   19.0460 N.am   21  LEU21      -0.1980
     30  CA        -7.7980    1.1620   20.1730 C.3    21  LEU21       0.1596
     31  C         -7.7580    2.0750   21.3850 C.2    21  LEU21       0.2287
     32  O         -7.4010    3.2420   21.2520 O.2    21  LEU21      -0.2864
     33  CB        -6.3800    0.7050   19.8770 C.3    21  LEU21       0.0297
     34  CG        -6.1890   -0.0800   18.5920 C.3    21  LEU21       0.0022
     35  CD1       -4.7030   -0.1070   18.2490 C.3    21  LEU21       0.0001
     36  CD2       -6.7810   -1.4680   18.7810 C.3    21  LEU21       0.0001
     37  N         -5.6110    1.8560   23.5490 N.3    23  TRP23      -0.1241
     38  CA        -4.1830    1.9100   23.8750 C.3    23  TRP23       0.1605
     39  C         -3.3480    2.2290   22.6240 C.2    23  TRP23       0.2264
     40  O         -3.8820    2.2820   21.5080 O.2    23  TRP23      -0.2867
     41  CB        -3.7370    0.5680   24.4590 C.3    23  TRP23       0.0550
     42  CG        -4.1170   -0.5750   23.5800 C.ar   23  TRP23       0.0003
     43  CD1       -3.4550   -1.0150   22.4670 C.ar   23  TRP23       0.0946
     44  CD2       -5.2770   -1.4130   23.7140 C.ar   23  TRP23       0.0152
     45  NE1       -4.1230   -2.0870   21.9110 N.ar   23  TRP23      -0.2442
     46  CE2       -5.2430   -2.3490   22.6560 C.ar   23  TRP23       0.0810
     47  CE3       -6.3330   -1.4730   24.6340 C.ar   23  TRP23       0.0012
     48  CZ2       -6.2250   -3.3280   22.4920 C.ar   23  TRP23       0.0191
     49  CZ3       -7.3020   -2.4470   24.4640 C.ar   23  TRP23       0.0001
     50  CH2       -7.2420   -3.3580   23.3970 C.ar   23  TRP23       0.0015
     51  N          3.0940    0.0590   19.9360 N.3    26  PRO26      -0.2116
     52  CA         3.6920   -0.1890   18.6130 C.3    26  PRO26       0.1372
     53  C          4.3140   -1.5800   18.4340 C.2    26  PRO26       0.2244
     54  O          4.3330   -2.1010   17.3180 O.2    26  PRO26      -0.2868
     55  CB         4.7830    0.8900   18.4980 C.3    26  PRO26       0.0268
     56  CG         5.0810    1.3020   19.9230 C.3    26  PRO26       0.0207
     57  CD         3.7610    1.1630   20.6460 C.3    26  PRO26       0.0892
     58  N          3.1310   -4.3530   19.7020 N.3    28  GLU28      -0.1231
     59  CA         2.0330   -5.3080   19.5370 C.3    28  GLU28       0.1699
     60  C          1.7360   -5.4670   18.0630 C.2    28  GLU28       0.2592
     61  O          1.4050   -6.5590   17.5970 O.2    28  GLU28      -0.2718
     62  CB         0.7640   -4.8310   20.2660 C.3    28  GLU28       0.0402
     63  CG        -0.2300   -5.9570   20.6470 C.3    28  GLU28       0.1161
     64  CD        -1.3830   -6.1940   19.6400 C.2    28  GLU28       0.3649
     65  OE1       -2.1570   -5.2350   19.3400 O.co2  28  GLU28      -0.2457
     66  OE2       -1.5490   -7.3720   19.2140 O.co2  28  GLU28      -0.2457
     67  N          1.8750   -4.3560   17.3430 N.am   29  LEU29      -0.1966
     68  CA         1.5140   -4.2820   15.9360 C.3    29  LEU29       0.1728
     69  C          2.4320   -5.1250   15.0800 C.2    29  LEU29       0.2616
     70  O          2.1400   -5.3770   13.9240 O.2    29  LEU29      -0.2715
     71  CB         1.4880   -2.8250   15.4520 C.3    29  LEU29       0.0311
     72  CG         0.3570   -2.0130   16.1130 C.3    29  LEU29       0.0022
     73  CD1        0.3280   -0.5500   15.6620 C.3    29  LEU29       0.0001
     74  CD2       -0.9890   -2.6600   15.9000 C.3    29  LEU29       0.0001
     75  N          3.5050   -5.6110   15.6780 N.am   30  GLN30      -0.1963
     76  CA         4.6270   -6.2060   14.9280 C.3    30  GLN30       0.1733
     77  C          4.5840   -7.7200   15.0300 C.2    30  GLN30       0.2616
     78  O          5.0360   -8.4230   14.1300 O.2    30  GLN30      -0.2715
     79  CB         5.9500   -5.6750   15.4670 C.3    30  GLN30       0.0408
     80  CG         6.1560   -4.1890   15.2040 C.3    30  GLN30       0.0908
     81  CD         6.5140   -3.8750   13.7460 C.2    30  GLN30       0.2608
     82  OE1        7.0990   -4.7030   13.0240 O.2    30  GLN30      -0.2717
     83  NE2        6.1760   -2.6610   13.3150 N.am   30  GLN30      -0.0878
     84  N          4.0290   -8.2120   16.1380 N.am   31  TYR31      -0.1960
     85  CA         3.7500   -9.6180   16.2700 C.3    31  TYR31       0.1771
     86  C          2.6500   -9.9130   15.2580 C.2    31  TYR31       0.2619
     87  O          2.6510  -10.9440   14.5790 O.2    31  TYR31      -0.2715
     88  CB         3.2540   -9.9000   17.6770 C.3    31  TYR31       0.0574
     89  CG         2.5690  -11.2310   17.8160 C.ar   31  TYR31      -0.0198
     90  CD1        3.3110  -12.4020   17.9110 C.ar   31  TYR31      -0.0009
     91  CD2        1.1820  -11.3240   17.8340 C.ar   31  TYR31      -0.0009
     92  CE1        2.7020  -13.6330   18.0360 C.ar   31  TYR31       0.0417
     93  CE2        0.5560  -12.5620   17.9600 C.ar   31  TYR31       0.0417
     94  CZ         1.3340  -13.7110   18.0570 C.ar   31  TYR31       0.1957
     95  OH         0.7460  -14.9510   18.1760 O.3    31  TYR31      -0.2866
     96  N          1.7350   -8.9530   15.1790 N.am   32  VAL32      -0.1963
     97  CA         0.5330   -8.9560   14.3650 C.3    32  VAL32       0.1727
     98  C          0.9210   -8.8770   12.9050 C.2    32  VAL32       0.2616
     99  O          0.3840   -9.5930   12.0860 O.2    32  VAL32      -0.2715
    100  CB        -0.3060   -7.7020   14.7210 C.3    32  VAL32       0.0290
    101  CG1       -1.0620   -7.1660   13.5250 C.3    32  VAL32       0.0023
    102  CG2       -1.2150   -7.9920   15.8640 C.3    32  VAL32       0.0023
    103  N          1.8700   -7.9930   12.6140 N.am   33  LYS33      -0.1977
    104  CA         2.3850   -7.8110   11.2800 C.3    33  LYS33       0.1596
    105  C          3.0070   -9.1060   10.7770 C.2    33  LYS33       0.2287
    106  O          2.7040   -9.5450    9.6750 O.2    33  LYS33      -0.2864
    107  CB         3.4110   -6.6670   11.2540 C.3    33  LYS33       0.0298
    108  CG         4.0260   -6.4530    9.8900 C.3    33  LYS33       0.0038
    109  CD         4.9710   -5.2510    9.8610 C.3    33  LYS33       0.0206
    110  CE         5.2690   -4.9460    8.3670 C.3    33  LYS33       0.1093
    111  NZ         5.8490   -3.5740    8.1930 N.3    33  LYS33      -0.1314
    112  N        -13.5360   -0.9790   11.4900 N.3    47  ASN47      -0.1240
    113  CA       -12.1330   -1.2970   11.7130 C.3    47  ASN47       0.1653
    114  C        -11.2370   -0.5940   10.7220 C.2    47  ASN47       0.2266
    115  O        -10.3920    0.1880   11.1140 O.2    47  ASN47      -0.2867
    116  CB       -11.8740   -2.7960   11.6260 C.3    47  ASN47       0.1155
    117  CG       -10.5080   -3.1630   12.1540 C.2    47  ASN47       0.2627
    118  OD1       -9.8350   -2.3330   12.7510 O.2    47  ASN47      -0.2716
    119  ND2      -10.0960   -4.4100   11.9530 N.am   47  ASN47      -0.0877
    120  N        -10.4380    2.9130   11.1360 N.3    50  ALA50      -0.1231
    121  CA        -9.5710    3.0880   12.3070 C.3    50  ALA50       0.1694
    122  C         -8.0930    2.8710   11.9580 C.2    50  ALA50       0.2591
    123  O         -7.2190    3.1570   12.7660 O.2    50  ALA50      -0.2718
    124  CB       -10.0170    2.1140   13.4570 C.3    50  ALA50       0.0304
    125  N         -7.8390    2.3280   10.7630 N.am   51  ILE51      -0.1980
    126  CA        -6.4800    2.0690   10.2440 C.3    51  ILE51       0.1595
    127  C         -6.1540    3.0680    9.1380 C.2    51  ILE51       0.2287
    128  O         -5.0190    3.4930    9.0100 O.2    51  ILE51      -0.2864
    129  CB        -6.3370    0.6130    9.6990 C.3    51  ILE51       0.0276
    130  CG1       -6.4480   -0.4060   10.8340 C.3    51  ILE51       0.0022
    131  CG2       -5.0270    0.4200    8.9710 C.3    51  ILE51       0.0022
    132  CD1       -6.9250   -1.8250   10.4150 C.3    51  ILE51       0.0001
    133  N         -5.6470    3.0450    6.0000 N.3    53  ARG53      -0.1245
    134  CA        -4.7370    2.7300    4.8930 C.3    53  ARG53       0.1563
    135  C         -4.5830    1.2300    4.7050 C.2    53  ARG53       0.2260
    136  O         -4.7390    0.4790    5.6690 O.2    53  ARG53      -0.2867
    137  CB        -3.3460    3.3560    5.1320 C.3    53  ARG53       0.0307
    138  CG        -2.7910    3.0770    6.5200 C.3    53  ARG53       0.0489
    139  CD        -1.2750    3.0110    6.5540 C.3    53  ARG53       0.2205
    140  NE        -0.8440    2.0780    7.5950 N.pl3  53  ARG53      -0.0865
    141  CZ         0.3010    1.4020    7.5800 C.cat  53  ARG53       0.5346
    142  NH1        1.1650    1.5530    6.5800 N.pl3  53  ARG53       0.1354
    143  NH2        0.5820    0.5650    8.5700 N.pl3  53  ARG53       0.1354
    144  N         -2.6290   -2.1860    4.5060 N.3    55  LEU55      -0.1231
    145  CA        -1.4620   -2.7430    5.1890 C.3    55  LEU55       0.1678
    146  C         -0.6750   -3.6260    4.2150 C.2    55  LEU55       0.2434
    147  O         -1.2050   -4.5990    3.6840 O.2    55  LEU55      -0.2733
    148  CB        -1.9260   -3.5550    6.4030 C.3    55  LEU55       0.0284
    149  CG        -2.1670   -2.8760    7.7640 C.3    55  LEU55       0.0019
    150  CD1       -2.2160   -1.3410    7.6980 C.3    55  LEU55       0.0001
    151  CD2       -3.4010   -3.4240    8.3960 C.3    55  LEU55       0.0001
    152  N          0.5950   -3.2880    3.9580 N.am   56  PRO56      -0.2729
    153  CA         1.2980   -3.9970    2.8840 C.3    56  PRO56       0.1401
    154  C          1.4890   -5.5070    3.0940 C.2    56  PRO56       0.2269
    155  O          1.4050   -6.0010    4.2340 O.2    56  PRO56      -0.2865
    156  CB         2.6410   -3.2660    2.8160 C.3    56  PRO56       0.0296
    157  CG         2.3570   -1.9320    3.4210 C.3    56  PRO56       0.0237
    158  CD         1.4540   -2.2520    4.5550 C.3    56  PRO56       0.0939
    159  N         -0.3650   -8.0620    2.3450 N.3    58  ARG58      -0.1245
    160  CA        -1.5440   -8.8760    2.5880 C.3    58  ARG58       0.1563
    161  C         -2.6850   -8.3440    1.7330 C.2    58  ARG58       0.2260
    162  O         -2.7340   -7.1490    1.4440 O.2    58  ARG58      -0.2867
    163  CB        -1.9220   -8.8160    4.0810 C.3    58  ARG58       0.0307
    164  CG        -0.9000   -9.4690    5.0200 C.3    58  ARG58       0.0489
    165  CD        -0.7150   -8.6910    6.3060 C.3    58  ARG58       0.2205
    166  NE         0.1690   -7.5240    6.1750 N.pl3  58  ARG58      -0.0865
    167  CZ         0.4650   -6.6850    7.1710 C.cat  58  ARG58       0.5346
    168  NH1       -0.0420   -6.8670    8.3950 N.pl3  58  ARG58       0.1354
    169  NH2        1.2740   -5.6550    6.9530 N.pl3  58  ARG58       0.1354
    170  N         -9.6760   -9.9550   11.1090 N.3    96  PHE96      -0.1241
    171  CA        -8.9020   -8.9210   11.7400 C.3    96  PHE96       0.1605
    172  C         -9.8610   -8.0470   12.5190 C.2    96  PHE96       0.2264
    173  O         -9.5000   -7.0010   13.0640 O.2    96  PHE96      -0.2867
    174  CB        -8.2220   -8.0980   10.6610 C.3    96  PHE96       0.0534
    175  CG        -6.9820   -7.4710   11.0960 C.ar   96  PHE96      -0.0203
    176  CD1       -5.9590   -8.2390   11.6420 C.ar   96  PHE96      -0.0042
    177  CD2       -6.8110   -6.1040   10.9610 C.ar   96  PHE96      -0.0042
    178  CE1       -4.7670   -7.6470   12.0490 C.ar   96  PHE96      -0.0003
    179  CE2       -5.6080   -5.4940   11.3520 C.ar   96  PHE96      -0.0003
    180  CZ        -4.5920   -6.2700   11.9120 C.ar   96  PHE96      -0.0000
    181  N        -16.2210  -10.2530   13.8990 N.3   102  TYR102     -0.1241
    182  CA       -15.9090  -11.4600   14.6310 C.3   102  TYR102      0.1605
    183  C        -17.2390  -12.2330   14.7000 C.2   102  TYR102      0.2264
    184  O        -17.2830  -13.4050   14.3900 O.2   102  TYR102     -0.2867
    185  CB       -15.2920  -11.2000   16.0450 C.3   102  TYR102      0.0534
    186  CG       -13.8970  -10.5890   16.0430 C.ar  102  TYR102     -0.0201
    187  CD1      -12.8350  -11.2130   15.3800 C.ar  102  TYR102     -0.0009
    188  CD2      -13.6320   -9.4040   16.7300 C.ar  102  TYR102     -0.0009
    189  CE1      -11.5480  -10.6550   15.3690 C.ar  102  TYR102      0.0417
    190  CE2      -12.3580   -8.8340   16.7430 C.ar  102  TYR102      0.0417
    191  CZ       -11.3200   -9.4460   16.0510 C.ar  102  TYR102      0.1957
    192  OH       -10.0550   -8.8580   16.0430 O.3   102  TYR102     -0.2866
    193  N         -5.9760  -16.0450   17.7020 N.3   113  TYR113     -0.1241
    194  CA        -4.7470  -15.3250   18.0560 C.3   113  TYR113      0.1605
    195  C         -5.0970  -14.1410   18.9100 C.2   113  TYR113      0.2264
    196  O         -5.5540  -13.1120   18.4120 O.2   113  TYR113     -0.2867
    197  CB        -3.9780  -14.8620   16.8270 C.3   113  TYR113      0.0534
    198  CG        -3.5200  -15.9900   15.9570 C.ar  113  TYR113     -0.0201
    199  CD1       -4.3920  -16.6080   15.0570 C.ar  113  TYR113     -0.0009
    200  CD2       -2.2190  -16.4420   16.0180 C.ar  113  TYR113     -0.0009
    201  CE1       -3.9680  -17.6510   14.2530 C.ar  113  TYR113      0.0417
    202  CE2       -1.7880  -17.4830   15.2250 C.ar  113  TYR113      0.0417
    203  CZ        -2.6680  -18.0780   14.3490 C.ar  113  TYR113      0.1957
    204  OH        -2.2210  -19.1050   13.5720 O.3   113  TYR113     -0.2866
    205  N         -4.0540  -11.5010   22.0860 N.3   115  THR115     -0.1218
    206  CA        -3.1580  -10.7870   22.9380 C.3   115  THR115      0.1862
    207  C         -4.0090  -10.4250   24.1320 C.2   115  THR115      0.2287
    208  O         -5.1380   -9.9550   23.9660 O.2   115  THR115     -0.2866
    209  CB        -2.6630   -9.5410   22.2090 C.3   115  THR115      0.1770
    210  OG1       -1.8370   -9.9420   21.0940 O.3   115  THR115     -0.2211
    211  CG2       -1.8540   -8.6720   23.1140 C.3   115  THR115      0.0375
@<TRIPOS>BOND
     1   162   161    2
     2   161   160    1
     3   159   160    1
     4   160   163    1
     5   156   153    1
     6   156   157    1
     7   153   154    1
     8   153   152    1
     9   154   155    2
    10   157   158    1
    11   147   146    2
    12   152   146   am
    13   152   158    1
    14   163   164    1
    15   146   145    1
    16   144   145    1
    17   135   134    1
    18   135   136    2
    19   134   137    1
    20   134   133    1
    21   164   165    1
    22   137   138    1
    23   145   148    1
    24   166   165    1
    25   166   167    2
    26   148   149    1
    27   138   139    1
    28   139   140    1
    29   142   141    1
    30   169   167    1
    31   167   168    1
    32   141   140    2
    33   141   143    1
    34   150   149    1
    35   149   151    1
    36   111   110    1
    37   110   109    1
    38   131   129    1
    39   128   127    2
    40   127   126    1
    41   106   105    2
    42   129   126    1
    43   129   130    1
    44   109   108    1
    45   108   107    1
    46   126   125    1
    47   132   130    1
    48   174   175    1
    49   174   171    1
    50   114   115    2
    51   114   113    1
    52   125   122   am
    53   105   104    1
    54   177   175   ar
    55   177   179   ar
    56   175   176   ar
    57   170   171    1
    58   120   121    1
    59   107   104    1
    60   104   103    1
    61   179   180   ar
    62   112   113    1
    63   116   113    1
    64   116   117    1
    65   176   178   ar
    66   171   172    1
    67   180   178   ar
    68   119   117   am
    69   122   121    1
    70   122   123    2
    71    99    98    2
    72   117   118    2
    73   121   124    1
    74   172   173    2
    75   103    98   am
    76    98    97    1
    77    82    81    2
    78    83    81   am
    79   101   100    1
    80   204   203    1
    81    81    80    1
    82   181   182    1
    83    70    69    2
    84     8     7    1
    85     5     6    1
    86     5     2    1
    87    78    77    2
    88   201   203   ar
    89   201   199   ar
    90     6     7    1
    91   203   202   ar
    92    97   100    1
    93    97    96    1
    94   184   183    2
    95    87    86    2
    96   182   183    1
    97   182   185    1
    98   100   102    1
    99     1     2    1
   100    76    77    1
   101    76    79    1
   102    76    75    1
   103    77    84   am
   104   199   198   ar
   105    69    75   am
   106    69    68    1
   107    96    86   am
   108    80    79    1
   109   202   200   ar
   110    86    85    1
   111     2     3    1
   112   189   187   ar
   113   189   191   ar
   114   187   186   ar
   115    71    68    1
   116    71    72    1
   117     4     3    2
   118    73    72    1
   119    74    72    1
   120    68    67    1
   121   198   200   ar
   122   198   197    1
   123   186   185    1
   124   186   188   ar
   125   192   191    1
   126   191   190   ar
   127     3     9   am
   128    84    85    1
   129    85    88    1
   130    27    26    2
   131   188   190   ar
   132   197   194    1
   133    28    26   am
   134    26    25    1
   135    54    53    2
   136    67    60   am
   137     9    10    1
   138    61    60    2
   139    88    89    1
   140   193   194    1
   141    21    22    1
   142    89    91   ar
   143    89    90   ar
   144    91    93   ar
   145    22    25    1
   146    22    23    1
   147    90    92   ar
   148    93    94   ar
   149    92    94   ar
   150   194   195    1
   151    94    95    1
   152    60    59    1
   153    35    34    1
   154    10    13    1
   155    10    11    1
   156   196   195    2
   157    53    52    1
   158    55    52    1
   159    55    56    1
   160    34    36    1
   161    34    33    1
   162    52    51    1
   163    13    14    1
   164    13    15    1
   165    23    29   am
   166    23    24    2
   167    29    30    1
   168    66    64   ar
   169    65    64   ar
   170    11    16   am
   171    11    12    2
   172    59    58    1
   173    59    62    1
   174    64    63    1
   175    16    17    1
   176    33    30    1
   177    56    57    1
   178    51    57    1
   179    30    31    1
   180    62    63    1
   181    20    17    1
   182    17    18    1
   183   210   209    1
   184    32    31    2
   185    40    39    2
   186    19    18    2
   187    45    43   ar
   188    45    46   ar
   189   205   206    1
   190   209   206    1
   191   209   211    1
   192    43    42   ar
   193    48    46   ar
   194    48    50   ar
   195    39    38    1
   196    46    44   ar
   197   206   207    1
   198    50    49   ar
   199    37    38    1
   200    42    44   ar
   201    42    41    1
   202    44    47   ar
   203    38    41    1
   204   208   207    2
   205    49    47   ar
