@<TRIPOS>MOLECULE
tmp/3dawA00.pdb
 179 169 0 0 0
SMALL
GASTEIGER

@<TRIPOS>ATOM
      1  N         11.3810    6.6840   30.9250 N.3     8  ASP8       -0.1239
      2  CA        11.3090    5.9480   29.6740 C.3     8  ASP8        0.1674
      3  C         10.2120    4.8870   29.8090 C.2     8  ASP8        0.2266
      4  O         10.4290    3.8280   30.3900 O.2     8  ASP8       -0.2867
      5  CB        12.6560    5.3170   29.3690 C.3     8  ASP8        0.1410
      6  CG        12.6410    4.4500   28.1070 C.2     8  ASP8        0.3668
      7  OD1       11.8260    4.7030   27.1790 O.co2   8  ASP8       -0.2456
      8  OD2       13.4940    3.5240   28.0600 O.co2   8  ASP8       -0.2456
      9  N          7.9490    2.0980   28.4710 N.3    10  GLY10      -0.1210
     10  CA         7.8610    1.0350   27.4810 C.3    10  GLY10       0.1956
     11  C          6.6020    0.2170   27.7070 C.2    10  GLY10       0.2613
     12  O          5.8950    0.4140   28.6950 O.2    10  GLY10      -0.2717
     13  N          6.3260   -0.6930   26.7760 N.am   11  SER11      -0.1938
     14  CA         5.1130   -1.4960   26.7850 C.3    11  SER11       0.2055
     15  C          5.0920   -2.4320   27.9790 C.2    11  SER11       0.2644
     16  O          4.0510   -2.6940   28.5680 O.2    11  SER11      -0.2714
     17  CB         5.0390   -2.3350   25.5000 C.3    11  SER11       0.2130
     18  OG         5.0640   -1.5170   24.3450 O.3    11  SER11      -0.2179
     19  N          6.2600   -2.9530   28.3250 N.am   12  GLY12      -0.1939
     20  CA         6.3600   -3.9520   29.3820 C.3    12  GLY12       0.2014
     21  C          6.8470   -3.4020   30.7110 C.2    12  GLY12       0.2638
     22  O          6.4100   -3.8590   31.7630 O.2    12  GLY12      -0.2714
     23  N          7.7570   -2.4340   30.6600 N.am   13  LEU13      -0.1977
     24  CA         8.4140   -1.9270   31.8500 C.3    13  LEU13       0.1596
     25  C          8.5540   -0.4290   31.7800 C.2    13  LEU13       0.2287
     26  O          8.7490    0.1390   30.7010 O.2    13  LEU13      -0.2864
     27  CB         9.8110   -2.5370   31.9970 C.3    13  LEU13       0.0297
     28  CG         9.9020   -4.0250   32.3740 C.3    13  LEU13       0.0022
     29  CD1       11.3360   -4.5060   32.1610 C.3    13  LEU13       0.0001
     30  CD2        9.4180   -4.2910   33.8310 C.3    13  LEU13       0.0001
     31  N         11.0440    2.4070   33.0190 N.3    15  LYS15      -0.1245
     32  CA        12.3170    2.7920   33.6580 C.3    15  LYS15       0.1561
     33  C         12.2400    4.2590   34.0150 C.2    15  LYS15       0.2260
     34  O         11.9660    5.0950   33.1550 O.2    15  LYS15      -0.2867
     35  CB        13.5400    2.5280   32.7790 C.3    15  LYS15       0.0271
     36  CG        13.5230    1.1670   32.0910 C.3    15  LYS15       0.0035
     37  CD        12.9530    1.2730   30.6900 C.3    15  LYS15       0.0206
     38  CE        12.0160    0.1750   30.3910 C.3    15  LYS15       0.1093
     39  NZ        11.6260    0.1760   28.9420 N.3    15  LYS15      -0.1314
     40  N          4.6010    0.2730   22.2130 N.3    71  GLY71      -0.1225
     41  CA         5.2700    1.5420   22.3790 C.3    71  GLY71       0.1811
     42  C          4.3170    2.7170   22.4250 C.2    71  GLY71       0.2280
     43  O          4.6480    3.7460   22.9970 O.2    71  GLY71      -0.2866
     44  N         13.0320    7.6820   21.7020 N.3   134  GLN134     -0.1245
     45  CA        13.8690    6.6350   22.3220 C.3   134  GLN134      0.1566
     46  C         15.0270    6.3160   21.4120 C.2   134  GLN134      0.2260
     47  O         16.1660    6.4360   21.8090 O.2   134  GLN134     -0.2867
     48  CB        13.0360    5.3720   22.6220 C.3   134  GLN134      0.0367
     49  CG        11.9950    5.5790   23.7280 C.3   134  GLN134      0.0905
     50  CD        10.6380    4.9390   23.4720 C.2   134  GLN134      0.2608
     51  OE1       10.4650    4.1200   22.5610 O.2   134  GLN134     -0.2717
     52  NE2        9.6520    5.3360   24.2720 N.am  134  GLN134     -0.0878
     53  N         15.7020   -1.2180   17.9010 N.3   151  ASP151     -0.1239
     54  CA        15.1010   -1.2600   19.2330 C.3   151  ASP151      0.1674
     55  C         14.1110   -2.4240   19.4090 C.2   151  ASP151      0.2266
     56  O         13.0670   -2.4520   18.7610 O.2   151  ASP151     -0.2867
     57  CB        14.3790    0.0560   19.5240 C.3   151  ASP151      0.1410
     58  CG        14.1610    0.2800   21.0150 C.2   151  ASP151      0.3668
     59  OD1       13.8850   -0.7100   21.7280 O.co2 151  ASP151     -0.2456
     60  OD2       14.2820    1.4460   21.4640 O.co2 151  ASP151     -0.2456
     61  N         12.1780   -4.4520   22.5990 N.3   153  GLY153     -0.1210
     62  CA        11.8500   -4.3450   24.0210 C.3   153  GLY153      0.1956
     63  C         10.9990   -5.4940   24.5150 C.2   153  GLY153      0.2612
     64  O         11.4310   -6.6430   24.4770 O.2   153  GLY153     -0.2717
     65  N          9.7910   -5.1950   24.9920 N.am  154  ASP154     -0.1959
     66  CA         8.9420   -6.2380   25.5390 C.3   154  ASP154      0.1840
     67  C          7.7650   -6.6390   24.6460 C.2   154  ASP154      0.2623
     68  O          7.4320   -7.8200   24.6220 O.2   154  ASP154     -0.2715
     69  CB         8.4380   -5.8750   26.9390 C.3   154  ASP154      0.1450
     70  CG         7.7450   -7.0490   27.6250 C.2   154  ASP154      0.3671
     71  OD1        8.4400   -8.0030   28.0040 O.co2 154  ASP154     -0.2456
     72  OD2        6.5020   -7.0350   27.7380 O.co2 154  ASP154     -0.2456
     73  N          7.1440   -5.6830   23.9430 N.am  155  GLY155     -0.1940
     74  CA         6.0310   -5.9610   23.0350 C.3   155  GLY155      0.2014
     75  C          6.2560   -5.5810   21.5670 C.2   155  GLY155      0.2638
     76  O          5.4400   -5.9310   20.6870 O.2   155  GLY155     -0.2714
     77  N          7.3390   -4.8630   21.2700 N.am  156  VAL156     -0.1977
     78  CA         7.5750   -4.4330   19.8950 C.3   156  VAL156      0.1596
     79  C          9.0410   -4.3900   19.5210 C.2   156  VAL156      0.2287
     80  O          9.8890   -4.0910   20.3550 O.2   156  VAL156     -0.2864
     81  CB         6.9760   -3.0460   19.6390 C.3   156  VAL156      0.0276
     82  CG1        7.6710   -2.0080   20.4970 C.3   156  VAL156      0.0022
     83  CG2        7.0590   -2.6940   18.1430 C.3   156  VAL156      0.0022
     84  N         10.2380   -9.5680   23.7080 N.3   179  GLY179     -0.1225
     85  CA        10.4150  -10.3160   24.9580 C.3   179  GLY179      0.1811
     86  C          9.2400  -11.1020   25.5260 C.2   179  GLY179      0.2280
     87  O          9.3900  -12.2890   25.8650 O.2   179  GLY179     -0.2866
     88  N         11.0800  -16.3590   32.6580 N.3   207  ARG207     -0.1245
     89  CA        11.6960  -15.0820   32.2870 C.3   207  ARG207      0.1563
     90  C         13.1500  -15.0230   32.7600 C.2   207  ARG207      0.2260
     91  O         14.0360  -14.5050   32.0710 O.2   207  ARG207     -0.2867
     92  CB        10.9180  -13.9010   32.8820 C.3   207  ARG207      0.0307
     93  CG        11.4080  -12.5100   32.4100 C.3   207  ARG207      0.0489
     94  CD        10.6570  -11.3480   33.0650 C.3   207  ARG207      0.2205
     95  NE        10.7020  -11.4030   34.5300 N.pl3 207  ARG207     -0.0865
     96  CZ        11.7580  -11.0780   35.2850 C.cat 207  ARG207      0.5346
     97  NH1       12.9040  -10.6640   34.7410 N.pl3 207  ARG207      0.1354
     98  NH2       11.6700  -11.1750   36.6060 N.pl3 207  ARG207      0.1354
     99  N         15.1710  -17.6410   30.6070 N.3   210  LYS210     -0.1231
    100  CA        15.3810  -16.9520   29.3330 C.3   210  LYS210      0.1693
    101  C         16.4940  -15.9210   29.4350 C.2   210  LYS210      0.2591
    102  O         17.3440  -15.8400   28.5550 O.2   210  LYS210     -0.2718
    103  CB        14.0850  -16.2520   28.8680 C.3   210  LYS210      0.0285
    104  CG        14.2610  -15.1880   27.7220 C.3   210  LYS210      0.0035
    105  CD        12.9720  -14.3560   27.4500 C.3   210  LYS210      0.0206
    106  CE        12.9770  -12.9520   28.1260 C.3   210  LYS210      0.1093
    107  NZ        11.8810  -12.0510   27.6440 N.3   210  LYS210     -0.1314
    108  N         16.4820  -15.1390   30.5110 N.am  211  GLU211     -0.1979
    109  CA        17.3660  -13.9800   30.6210 C.3   211  GLU211      0.1602
    110  C         18.7770  -14.3420   31.0210 C.2   211  GLU211      0.2287
    111  O         19.6680  -13.5060   30.9360 O.2   211  GLU211     -0.2864
    112  CB        16.8000  -12.9350   31.6100 C.3   211  GLU211      0.0415
    113  CG        15.6570  -12.0780   31.0320 C.3   211  GLU211      0.1163
    114  CD        15.2490  -10.9090   31.9030 C.2   211  GLU211      0.3649
    115  OE1       16.0100  -10.4960   32.7970 O.co2 211  GLU211     -0.2457
    116  OE2       14.1460  -10.3890   31.6700 O.co2 211  GLU211     -0.2457
    117  N         17.5390   -2.0810   23.8030 N.3   298  GLY298     -0.1210
    118  CA        16.3920   -2.7470   24.4230 C.3   298  GLY298      0.1956
    119  C         16.6670   -4.1590   24.8950 C.2   298  GLY298      0.2612
    120  O         17.5200   -4.8560   24.3530 O.2   298  GLY298     -0.2717
    121  N         15.9240   -4.5910   25.9060 N.am  299  GLY299     -0.1942
    122  CA        16.2620   -5.8210   26.6060 C.3   299  GLY299      0.2014
    123  C         16.2950   -7.0660   25.7320 C.2   299  GLY299      0.2639
    124  O         17.0090   -8.0140   26.0230 O.2   299  GLY299     -0.2714
    125  N         15.5200   -7.0740   24.6590 N.am  300  THR300     -0.1950
    126  CA        15.4180   -8.2750   23.8460 C.3   300  THR300      0.1897
    127  C         16.6130   -8.4050   22.8580 C.2   300  THR300      0.2313
    128  O         16.7800   -9.4490   22.2120 O.2   300  THR300     -0.2863
    129  CB        14.0010   -8.3790   23.2070 C.3   300  THR300      0.1794
    130  OG1       13.0880   -8.8200   24.2280 O.3   300  THR300     -0.2208
    131  CG2       13.9460   -9.3490   22.0130 C.3   300  THR300      0.0378
    132  N         19.5790   -8.2400   24.2340 N.3   302  MET302     -0.1230
    133  CA        20.6430   -8.5660   25.2030 C.3   302  MET302      0.1702
    134  C         21.2250   -9.9660   25.1130 C.2   302  MET302      0.2592
    135  O         22.1950  -10.2740   25.8110 O.2   302  MET302     -0.2718
    136  CB        20.1520   -8.3360   26.6190 C.3   302  MET302      0.0401
    137  CG        20.0080   -6.8710   26.9260 C.3   302  MET302      0.0596
    138  SD        21.6080   -6.1070   27.1620 S.3   302  MET302     -0.1393
    139  CE        22.0170   -6.7410   28.7950 C.3   302  MET302      0.0692
    140  N         20.6610  -10.7990   24.2410 N.am  303  TYR303     -0.1963
    141  CA        21.1070  -12.1890   24.1110 C.3   303  TYR303      0.1756
    142  C         22.5140  -12.2200   23.5500 C.2   303  TYR303      0.2461
    143  O         22.8090  -11.5220   22.5820 O.2   303  TYR303     -0.2730
    144  CB        20.2020  -12.9920   23.1770 C.3   303  TYR303      0.0574
    145  CG        18.7650  -13.1110   23.6270 C.ar  303  TYR303     -0.0198
    146  CD1       17.8250  -12.1460   23.2890 C.ar  303  TYR303     -0.0009
    147  CD2       18.3380  -14.2010   24.3810 C.ar  303  TYR303     -0.0009
    148  CE1       16.5040  -12.2580   23.7010 C.ar  303  TYR303      0.0417
    149  CE2       17.0210  -14.3230   24.7850 C.ar  303  TYR303      0.0417
    150  CZ        16.1090  -13.3550   24.4440 C.ar  303  TYR303      0.1957
    151  OH        14.8040  -13.4830   24.8580 O.3   303  TYR303     -0.2866
    152  N         23.3940  -13.0140   24.1670 N.am  304  PRO304     -0.2727
    153  CA        24.7010  -13.3280   23.6060 C.3   304  PRO304      0.1402
    154  C         24.6310  -13.8310   22.1670 C.2   304  PRO304      0.2269
    155  O         23.6960  -14.5450   21.7990 O.2   304  PRO304     -0.2865
    156  CB        25.1950  -14.4470   24.5170 C.3   304  PRO304      0.0296
    157  CG        24.5570  -14.1700   25.8260 C.3   304  PRO304      0.0237
    158  CD        23.2000  -13.6400   25.4880 C.3   304  PRO304      0.0939
    159  N         20.5650   -1.9650   27.4460 N.3   333  LYS333     -0.1231
    160  CA        19.3110   -2.3330   28.0630 C.3   333  LYS333      0.1693
    161  C         18.6250   -1.0770   28.6380 C.2   333  LYS333      0.2592
    162  O         17.4100   -1.0130   28.7000 O.2   333  LYS333     -0.2718
    163  CB        19.5940   -3.3650   29.1630 C.3   333  LYS333      0.0285
    164  CG        18.4040   -4.1780   29.6270 C.3   333  LYS333      0.0035
    165  CD        18.5280   -4.4810   31.1120 C.3   333  LYS333      0.0206
    166  CE        18.0500   -5.8800   31.4860 C.3   333  LYS333      0.1093
    167  NZ        18.3490   -6.1460   32.9340 N.3   333  LYS333     -0.1314
    168  N         19.4170   -0.0860   29.0540 N.am  334  TYR334     -0.1976
    169  CA        18.8870    1.1840   29.5440 C.3   334  TYR334      0.1639
    170  C         19.5560    2.3930   28.8770 C.2   334  TYR334      0.2290
    171  O         19.6130    3.4980   29.4600 O.2   334  TYR334     -0.2864
    172  CB        19.0690    1.2890   31.0610 C.3   334  TYR334      0.0560
    173  CG        18.4500    0.1560   31.8630 C.ar  334  TYR334     -0.0198
    174  CD1       17.1230   -0.2510   31.6450 C.ar  334  TYR334     -0.0009
    175  CD2       19.1810   -0.4960   32.8450 C.ar  334  TYR334     -0.0009
    176  CE1       16.5590   -1.2710   32.3770 C.ar  334  TYR334      0.0417
    177  CE2       18.6190   -1.5060   33.5880 C.ar  334  TYR334      0.0417
    178  CZ        17.3120   -1.8840   33.3560 C.ar  334  TYR334      0.1957
    179  OH        16.7810   -2.9080   34.0990 O.3   334  TYR334     -0.2866
@<TRIPOS>BOND
     1    53    54    1
     2    83    81    1
     3    56    55    2
     4    54    55    1
     5    54    57    1
     6    79    78    1
     7    79    80    2
     8    57    58    1
     9    81    78    1
    10    81    82    1
    11    78    77    1
    12    76    75    2
    13    58    60   ar
    14    58    59   ar
    15    77    75   am
    16    46    47    2
    17    46    45    1
    18    75    74    1
    19    44    45    1
    20   155   154    2
    21   131   129    1
    22   154   153    1
    23   128   127    2
    24    40    41    1
    25    45    48    1
    26    41    42    1
    27    42    43    2
    28    51    50    2
    29   143   142    2
    30    61    62    1
    31    48    49    1
    32   127   126    1
    33    74    73    1
    34   144   145    1
    35   144   141    1
    36   129   126    1
    37   129   130    1
    38   146   145   ar
    39   146   148   ar
    40    50    49    1
    41    50    52   am
    42   142   141    1
    43   142   152   am
    44   153   152    1
    45   153   156    1
    46   145   147   ar
    47   148   150   ar
    48    84    85    1
    49   117   118    1
    50   126   125    1
    51    73    67   am
    52    62    63    1
    53   141   140    1
    54   152   158    1
    55   132   133    1
    56   140   134   am
    57    18    17    1
    58   120   119    2
    59   147   149   ar
    60   118   119    1
    61   150   149   ar
    62   150   151    1
    63    64    63    2
    64    63    65   am
    65   156   157    1
    66    68    67    2
    67    67    66    1
    68   125   123   am
    69   119   121   am
    70    85    86    1
    71    65    66    1
    72   134   133    1
    73   134   135    2
    74   133   136    1
    75   158   157    1
    76    17    14    1
    77    86    87    2
    78    66    69    1
    79   123   124    2
    80   123   122    1
    81   121   122    1
    82   136   137    1
    83    13    14    1
    84    13    11   am
    85    14    15    1
    86   137   138    1
    87    69    70    1
    88   138   139    1
    89     7     6   ar
    90   159   160    1
    91   105   104    1
    92   105   106    1
    93    10    11    1
    94    10     9    1
    95    70    72   ar
    96    70    71   ar
    97   107   106    1
    98    11    12    2
    99   104   103    1
   100    15    19   am
   101    15    16    2
   102     8     6   ar
   103   160   161    1
   104   160   163    1
   105     6     5    1
   106    19    20    1
   107   102   101    2
   108   161   162    2
   109   161   168   am
   110   103   100    1
   111   170   171    2
   112   170   169    1
   113    39    38    1
   114   168   169    1
   115   163   164    1
   116   100   101    1
   117   100    99    1
   118     5     2    1
   119    20    21    1
   120   101   108   am
   121   169   172    1
   122   164   165    1
   123     2     3    1
   124     2     1    1
   125     3     4    2
   126    38    37    1
   127   108   109    1
   128   109   110    1
   129   109   112    1
   130    23    21   am
   131    23    24    1
   132    37    36    1
   133    26    25    2
   134    21    22    2
   135   111   110    2
   136   113   112    1
   137   113   114    1
   138   172   173    1
   139   165   166    1
   140   166   167    1
   141   174   173   ar
   142   174   176   ar
   143   116   114   ar
   144    25    24    1
   145    24    27    1
   146   173   175   ar
   147   114   115   ar
   148    27    28    1
   149    91    90    2
   150    36    35    1
   151    29    28    1
   152    89    88    1
   153    89    90    1
   154    89    92    1
   155    28    30    1
   156   176   178   ar
   157    93    92    1
   158    93    94    1
   159    35    32    1
   160   175   177   ar
   161    31    32    1
   162    94    95    1
   163    34    33    2
   164   178   177   ar
   165   178   179    1
   166    32    33    1
   167    95    96    2
   168    97    96    1
   169    96    98    1
