@<TRIPOS>MOLECULE
tmp/3dayA00.pdb
 210 203 0 0 0
SMALL
GASTEIGER

@<TRIPOS>ATOM
      1  N         18.0660   -6.6010  -10.6310 N.3   189  THR189     -0.1203
      2  CA        19.4840   -6.3030  -10.8160 C.3   189  THR189      0.1994
      3  C         20.2830   -7.1400   -9.8110 C.2   189  THR189      0.2619
      4  O         19.7360   -7.6300   -8.8250 O.2   189  THR189     -0.2717
      5  CB        19.8520   -4.7960  -10.6760 C.3   189  THR189      0.1784
      6  OG1       19.5500   -4.3590   -9.3460 O.3   189  THR189     -0.2211
      7  CG2       19.1600   -3.9090  -11.7330 C.3   189  THR189      0.0376
      8  N         21.5590   -7.3580  -10.1180 N.am  190  SER190     -0.1937
      9  CA        22.3230   -8.3500   -9.3900 C.3   190  SER190      0.2055
     10  C         22.7000   -7.9610   -7.9560 C.2   190  SER190      0.2644
     11  O         23.1470   -8.8180   -7.2090 O.2   190  SER190     -0.2714
     12  CB        23.5310   -8.8430  -10.2240 C.3   190  SER190      0.2130
     13  OG        24.3850   -7.8240  -10.6490 O.3   190  SER190     -0.2179
     14  N         22.5500   -6.6810   -7.5840 N.am  191  GLY191     -0.1939
     15  CA        22.7130   -6.2270   -6.1990 C.3   191  GLY191      0.2014
     16  C         24.0890   -5.6660   -5.8710 C.2   191  GLY191      0.2640
     17  O         24.4780   -5.5790   -4.6820 O.2   191  GLY191     -0.2714
     18  N         24.8180   -5.2360   -6.8920 N.am  192  THR192     -0.1936
     19  CA        26.1960   -4.7480   -6.6720 C.3   192  THR192      0.2028
     20  C         26.2140   -3.5370   -5.7570 C.2   192  THR192      0.2643
     21  O         27.0190   -3.4310   -4.8210 O.2   192  THR192     -0.2714
     22  CB        26.8720   -4.3930   -8.0190 C.3   192  THR192      0.1808
     23  OG1       26.8540   -5.5470   -8.8580 O.3   192  THR192     -0.2208
     24  CG2       28.3250   -3.9080   -7.8270 C.3   192  THR192      0.0379
     25  N         25.3070   -2.5950   -6.0260 N.am  193  SER193     -0.1935
     26  CA        25.3120   -1.3340   -5.3040 C.3   193  SER193      0.2055
     27  C         24.3490   -1.3530   -4.0970 C.2   193  SER193      0.2644
     28  O         24.2850   -0.3930   -3.3590 O.2   193  SER193     -0.2714
     29  CB        24.9380   -0.1890   -6.2640 C.3   193  SER193      0.2130
     30  OG        23.5580   -0.2670   -6.6100 O.3   193  SER193     -0.2179
     31  N         23.5840   -2.4260   -3.9250 N.am  194  GLY194     -0.1939
     32  CA        22.5370   -2.4530   -2.8940 C.3   194  GLY194      0.2014
     33  C         21.4810   -3.5020   -3.1900 C.2   194  GLY194      0.2638
     34  O         21.7310   -4.3990   -3.9660 O.2   194  GLY194     -0.2714
     35  N         20.3030   -3.4030   -2.5550 N.am  195  LEU195     -0.1977
     36  CA        19.2450   -4.3930   -2.7820 C.3   195  LEU195      0.1596
     37  C         18.9590   -4.4300   -4.2870 C.2   195  LEU195      0.2287
     38  O         18.9780   -3.3980   -4.9650 O.2   195  LEU195     -0.2864
     39  CB        17.9630   -4.0800   -1.9990 C.3   195  LEU195      0.0297
     40  CG        18.0770   -4.1960   -0.4770 C.3   195  LEU195      0.0022
     41  CD1       16.8110   -3.7120    0.1750 C.3   195  LEU195      0.0001
     42  CD2       18.3740   -5.6410   -0.0720 C.3   195  LEU195      0.0001
     43  N         17.1680   -4.1130   -7.6500 N.3   197  LYS197     -0.1245
     44  CA        16.0900   -3.2740   -8.1590 C.3   197  LYS197      0.1561
     45  C         15.3140   -4.0250   -9.2200 C.2   197  LYS197      0.2260
     46  O         15.8740   -4.7820   -9.9680 O.2   197  LYS197     -0.2867
     47  CB        16.6320   -1.9890   -8.7830 C.3   197  LYS197      0.0271
     48  CG        17.6450   -1.2410   -7.9240 C.3   197  LYS197      0.0035
     49  CD        18.1540    0.0080   -8.5990 C.3   197  LYS197      0.0206
     50  CE        19.3140   -0.2270   -9.5030 C.3   197  LYS197      0.1093
     51  NZ        20.6250   -0.3510   -8.7810 N.3   197  LYS197     -0.1314
     52  N         19.8480  -13.6560  -16.2310 N.3   233  TRP233     -0.1227
     53  CA        20.2240  -12.2860  -16.5180 C.3   233  TRP233      0.1737
     54  C         19.7840  -11.7780  -17.9180 C.2   233  TRP233      0.2595
     55  O         19.5300  -12.5630  -18.8310 O.2   233  TRP233     -0.2718
     56  CB        21.7230  -12.1260  -16.2750 C.3   233  TRP233      0.0564
     57  CG        22.1860  -12.6660  -14.9230 C.ar  233  TRP233      0.0003
     58  CD1       23.0780  -13.6850  -14.7140 C.ar  233  TRP233      0.0946
     59  CD2       21.7930  -12.1990  -13.6080 C.ar  233  TRP233      0.0152
     60  NE1       23.2560  -13.8830  -13.3720 N.ar  233  TRP233     -0.2442
     61  CE2       22.4820  -12.9980  -12.6630 C.ar  233  TRP233      0.0810
     62  CE3       20.9180  -11.1890  -13.1440 C.ar  233  TRP233      0.0012
     63  CZ2       22.3320  -12.8240  -11.2540 C.ar  233  TRP233      0.0191
     64  CZ3       20.7730  -11.0020  -11.7570 C.ar  233  TRP233      0.0001
     65  CH2       21.4840  -11.8240  -10.8250 C.ar  233  TRP233      0.0015
     66  N         19.7090  -10.4630  -18.0730 N.am  234  ILE234     -0.1980
     67  CA        19.1790   -9.8480  -19.2950 C.3   234  ILE234      0.1595
     68  C         19.9970  -10.1960  -20.5670 C.2   234  ILE234      0.2287
     69  O         19.4270  -10.2190  -21.6520 O.2   234  ILE234     -0.2864
     70  CB        18.9560   -8.2880  -19.1580 C.3   234  ILE234      0.0276
     71  CG1       17.9500   -7.8180  -20.2040 C.3   234  ILE234      0.0022
     72  CG2       20.3020   -7.4840  -19.2360 C.3   234  ILE234      0.0022
     73  CD1       17.4070   -6.3430  -19.9980 C.3   234  ILE234      0.0001
     74  N         30.6600   -8.6380  -22.6710 N.3   305  VAL305     -0.1231
     75  CA        29.9630   -7.5740  -21.8990 C.3   305  VAL305      0.1692
     76  C         30.0670   -7.8790  -20.4050 C.2   305  VAL305      0.2593
     77  O         30.4470   -8.9820  -20.0330 O.2   305  VAL305     -0.2718
     78  CB        28.4840   -7.3960  -22.3350 C.3   305  VAL305      0.0266
     79  CG1       27.6480   -8.6040  -21.9140 C.3   305  VAL305      0.0020
     80  CG2       27.8520   -6.0250  -21.8330 C.3   305  VAL305      0.0020
     81  N         29.8140   -6.8720  -19.5640 N.am  306  GLY306     -0.1942
     82  CA        29.6260   -7.0820  -18.1320 C.3   306  GLY306      0.2014
     83  C         30.6690   -6.4370  -17.2500 C.2   306  GLY306      0.2639
     84  O         30.3630   -5.9790  -16.1670 O.2   306  GLY306     -0.2714
     85  N         31.9050   -6.4000  -17.7150 N.am  307  GLU307     -0.1963
     86  CA        32.9730   -5.7580  -16.9920 C.3   307  GLU307      0.1733
     87  C         34.0100   -5.4150  -18.0420 C.2   307  GLU307      0.2617
     88  O         33.8660   -5.8160  -19.1990 O.2   307  GLU307     -0.2715
     89  CB        33.5530   -6.6680  -15.8560 C.3   307  GLU307      0.0429
     90  CG        34.3610   -7.9000  -16.3110 C.3   307  GLU307      0.1163
     91  CD        35.1570   -8.6130  -15.1820 C.2   307  GLU307      0.3649
     92  OE1       35.3120   -8.0300  -14.0960 O.co2 307  GLU307     -0.2457
     93  OE2       35.6230   -9.7730  -15.3610 O.co2 307  GLU307     -0.2457
     94  N         35.0330   -4.6670  -17.6270 N.am  308  SER308     -0.1950
     95  CA        36.0570   -4.1930  -18.5270 C.3   308  SER308      0.1924
     96  C         36.8720   -5.3590  -19.0910 C.2   308  SER308      0.2314
     97  O         37.2440   -6.2890  -18.3800 O.2   308  SER308     -0.2863
     98  CB        36.9610   -3.1710  -17.8520 C.3   308  SER308      0.2116
     99  OG        36.2990   -1.9320  -17.7380 O.3   308  SER308     -0.2180
    100  N         34.3120   -5.5750  -27.3760 N.3   327  GLU327     -0.1231
    101  CA        33.6460   -5.2430  -26.1370 C.3   327  GLU327      0.1699
    102  C         32.3330   -4.4940  -26.3770 C.2   327  GLU327      0.2593
    103  O         32.1560   -3.7960  -27.3780 O.2   327  GLU327     -0.2718
    104  CB        34.5590   -4.3910  -25.2560 C.3   327  GLU327      0.0402
    105  CG        34.1100   -4.1690  -23.8540 C.3   327  GLU327      0.1161
    106  CD        35.1820   -3.4970  -22.9520 C.2   327  GLU327      0.3649
    107  OE1       36.2950   -3.0890  -23.4190 O.co2 327  GLU327     -0.2457
    108  OE2       34.8990   -3.4110  -21.7420 O.co2 327  GLU327     -0.2457
    109  N         31.4210   -4.7130  -25.4480 N.am  328  SER328     -0.1938
    110  CA        30.1730   -3.9690  -25.3210 C.3   328  SER328      0.2055
    111  C         29.9160   -3.5810  -23.8600 C.2   328  SER328      0.2643
    112  O         30.4840   -4.1190  -22.9160 O.2   328  SER328     -0.2714
    113  CB        28.9840   -4.7670  -25.9090 C.3   328  SER328      0.2130
    114  OG        28.7490   -5.9990  -25.2560 O.3   328  SER328     -0.2179
    115  N         28.9970   -2.6490  -23.7130 N.am  329  TYR329     -0.1959
    116  CA        28.6670   -2.0440  -22.4570 C.3   329  TYR329      0.1771
    117  C         27.1470   -1.8270  -22.3620 C.2   329  TYR329      0.2620
    118  O         26.5030   -1.4440  -23.3130 O.2   329  TYR329     -0.2715
    119  CB        29.3610   -0.6910  -22.4110 C.3   329  TYR329      0.0574
    120  CG        28.8760    0.2230  -21.3380 C.ar  329  TYR329     -0.0198
    121  CD1       29.2220    0.0010  -19.9850 C.ar  329  TYR329     -0.0009
    122  CD2       28.0820    1.3340  -21.6440 C.ar  329  TYR329     -0.0009
    123  CE1       28.7910    0.8720  -18.9900 C.ar  329  TYR329      0.0417
    124  CE2       27.6620    2.2110  -20.6360 C.ar  329  TYR329      0.0417
    125  CZ        28.0090    1.9760  -19.3350 C.ar  329  TYR329      0.1957
    126  OH        27.5500    2.8470  -18.3640 O.3   329  TYR329     -0.2866
    127  N         26.6050   -2.0520  -21.1820 N.am  330  GLY330     -0.1940
    128  CA        25.2710   -1.5990  -20.8670 C.3   330  GLY330      0.2014
    129  C         24.9240   -1.9810  -19.4590 C.2   330  GLY330      0.2639
    130  O         25.7800   -2.3680  -18.6690 O.2   330  GLY330     -0.2714
    131  N         23.6470   -1.8530  -19.1390 N.am  331  GLN331     -0.1963
    132  CA        23.1360   -2.2040  -17.8240 C.3   331  GLN331      0.1733
    133  C         21.7250   -2.7280  -18.0200 C.2   331  GLN331      0.2617
    134  O         21.1100   -2.6040  -19.0950 O.2   331  GLN331     -0.2715
    135  CB        23.1310   -1.0070  -16.8260 C.3   331  GLN331      0.0408
    136  CG        22.1570    0.1240  -17.1560 C.3   331  GLN331      0.0908
    137  CD        22.2430    1.3270  -16.2410 C.2   331  GLN331      0.2608
    138  OE1       21.3260    2.1560  -16.1880 O.2   331  GLN331     -0.2717
    139  NE2       23.3350    1.4340  -15.5190 N.am  331  GLN331     -0.0878
    140  N         21.1820   -3.2970  -16.9640 N.am  332  THR332     -0.1937
    141  CA        19.8580   -3.9070  -17.0600 C.3   332  THR332      0.2028
    142  C         18.7910   -2.9280  -17.5570 C.2   332  THR332      0.2642
    143  O         17.9450   -3.2880  -18.3660 O.2   332  THR332     -0.2714
    144  CB        19.4400   -4.5440  -15.6920 C.3   332  THR332      0.1808
    145  OG1       20.3910   -5.5400  -15.3620 O.3   332  THR332     -0.2208
    146  CG2       18.0430   -5.1880  -15.7450 C.3   332  THR332      0.0379
    147  N         18.8720   -1.6960  -17.0730 N.am  333  GLU333     -0.1976
    148  CA        17.9480   -0.6050  -17.4240 C.3   333  GLU333      0.1602
    149  C         17.9850   -0.1500  -18.8840 C.2   333  GLU333      0.2287
    150  O         17.0100    0.3670  -19.3880 O.2   333  GLU333     -0.2864
    151  CB        18.2670    0.6090  -16.5170 C.3   333  GLU333      0.0415
    152  CG        18.0450    0.3060  -15.0500 C.3   333  GLU333      0.1163
    153  CD        19.2870   -0.1890  -14.2760 C.2   333  GLU333      0.3649
    154  OE1       20.1910   -0.8790  -14.8340 O.co2 333  GLU333     -0.2457
    155  OE2       19.3700    0.1460  -13.0720 O.co2 333  GLU333     -0.2457
    156  N         35.2500    0.5840  -24.7650 N.3   351  MET351     -0.1245
    157  CA        34.0850   -0.3030  -24.8920 C.3   351  MET351      0.1570
    158  C         33.1200    0.0360  -26.0420 C.2   351  MET351      0.2261
    159  O         32.0110   -0.4840  -26.0870 O.2   351  MET351     -0.2867
    160  CB        33.3710   -0.4090  -23.5250 C.3   351  MET351      0.0387
    161  CG        32.7680    0.8850  -22.9890 C.3   351  MET351      0.0595
    162  SD        32.3340    0.7380  -21.2480 S.3   351  MET351     -0.1393
    163  CE        31.8510    2.4710  -21.0090 C.3   351  MET351      0.0692
    164  N         23.5120    6.4550  -16.2090 N.3   412  LEU412     -0.1245
    165  CA        23.9330    5.0570  -16.0210 C.3   412  LEU412      0.1561
    166  C         24.5530    4.7940  -14.6640 C.2   412  LEU412      0.2260
    167  O         24.5710    3.6360  -14.2060 O.2   412  LEU412     -0.2867
    168  CB        24.8730    4.5960  -17.1570 C.3   412  LEU412      0.0270
    169  CG        23.9630    4.2400  -18.3520 C.3   412  LEU412      0.0019
    170  CD1       23.9930    5.3040  -19.4210 C.3   412  LEU412      0.0001
    171  CD2       24.2020    2.8540  -18.8750 C.3   412  LEU412      0.0001
    172  N         27.6910    5.3010  -14.1570 N.3   414  ASP414     -0.1239
    173  CA        29.0920    5.0480  -14.4780 C.3   414  ASP414      0.1674
    174  C         29.7550    6.3160  -14.9770 C.2   414  ASP414      0.2266
    175  O         29.1550    7.1370  -15.6850 O.2   414  ASP414     -0.2867
    176  CB        29.1820    3.9440  -15.5290 C.3   414  ASP414      0.1410
    177  CG        28.5230    2.6690  -15.0840 C.2   414  ASP414      0.3668
    178  OD1       28.7970    2.2310  -13.9440 O.co2 414  ASP414     -0.2456
    179  OD2       27.7640    2.0830  -15.8880 O.co2 414  ASP414     -0.2456
    180  N         35.3490    3.2640  -19.8940 N.3   426  PHE426     -0.1241
    181  CA        34.7660    3.1200  -18.5860 C.3   426  PHE426      0.1605
    182  C         35.7340    3.6540  -17.5460 C.2   426  PHE426      0.2264
    183  O         36.9130    3.3070  -17.6110 O.2   426  PHE426     -0.2867
    184  CB        34.4920    1.6210  -18.3040 C.3   426  PHE426      0.0534
    185  CG        33.8320    1.3520  -16.9710 C.ar  426  PHE426     -0.0203
    186  CD1       32.4780    1.6200  -16.7620 C.ar  426  PHE426     -0.0042
    187  CD2       34.5530    0.7850  -15.9500 C.ar  426  PHE426     -0.0042
    188  CE1       31.8690    1.3390  -15.5450 C.ar  426  PHE426     -0.0003
    189  CE2       33.9550    0.4940  -14.7200 C.ar  426  PHE426     -0.0003
    190  CZ        32.6370    0.7780  -14.4990 C.ar  426  PHE426     -0.0000
    191  N         32.2670    2.9530  -11.4020 N.3   429  ARG429     -0.1245
    192  CA        30.9770    3.3850  -10.8660 C.3   429  ARG429      0.1563
    193  C         31.1770    4.7080  -10.1210 C.2   429  ARG429      0.2260
    194  O         32.0980    4.8260   -9.3150 O.2   429  ARG429     -0.2867
    195  CB        30.3780    2.2980   -9.9610 C.3   429  ARG429      0.0307
    196  CG        30.0010    1.0630  -10.7380 C.3   429  ARG429      0.0489
    197  CD        29.6210   -0.0460   -9.8220 C.3   429  ARG429      0.2205
    198  NE        29.5640   -1.3030  -10.5300 N.pl3 429  ARG429     -0.0865
    199  CZ        28.4400   -1.8910  -10.9460 C.cat 429  ARG429      0.5346
    200  NH1       27.2560   -1.3310  -10.7370 N.pl3 429  ARG429      0.1354
    201  NH2       28.5140   -3.0400  -11.5800 N.pl3 429  ARG429      0.1354
    202  N         30.3590  -10.1870   -7.7890 N.3   523  LYS523     -0.1245
    203  CA        30.8270   -8.8140   -7.8680 C.3   523  LYS523      0.1561
    204  C         31.0040   -8.2800   -6.4470 C.2   523  LYS523      0.2260
    205  O         30.1480   -8.4360   -5.6130 O.2   523  LYS523     -0.2867
    206  CB        29.8910   -7.9370   -8.7240 C.3   523  LYS523      0.0271
    207  CG        30.3170   -7.8580  -10.1990 C.3   523  LYS523      0.0035
    208  CD        29.1710   -7.8080  -11.2120 C.3   523  LYS523      0.0206
    209  CE        28.6920   -6.4030  -11.5340 C.3   523  LYS523      0.1093
    210  NZ        27.5110   -6.3830  -12.4940 N.3   523  LYS523     -0.1314
@<TRIPOS>BOND
     1   103   102    2
     2   100   101    1
     3   102   101    1
     4   102   109   am
     5   101   104    1
     6   159   158    2
     7   158   157    1
     8   113   110    1
     9   113   114    1
    10   109   110    1
    11   110   111    1
    12   104   105    1
    13   157   156    1
    14   157   160    1
    15   111   115   am
    16   111   112    2
    17   105   106    1
    18   115   116    1
    19   160   161    1
    20   107   106   ar
    21   118   117    2
    22   161   162    1
    23   106   108   ar
    24    74    75    1
    25   116   119    1
    26   116   117    1
    27   119   120    1
    28   117   127   am
    29    78    79    1
    30    78    75    1
    31    78    80    1
    32    75    76    1
    33    69    68    2
    34   122   120   ar
    35   122   124   ar
    36   120   121   ar
    37   162   163    1
    38   127   128    1
    39   128   129    1
    40   124   125   ar
    41    68    67    1
    42    76    77    2
    43    76    81   am
    44    71    73    1
    45    71    70    1
    46   121   123   ar
    47   180   181    1
    48    81    82    1
    49   129   131   am
    50   129   130    2
    51   170   169    1
    52   150   149    2
    53   125   123   ar
    54   125   126    1
    55    67    70    1
    56    67    66    1
    57    72    70    1
    58    88    87    2
    59   131   132    1
    60   134   133    2
    61    96    95    1
    62    96    97    2
    63   149   148    1
    64   171   169    1
    65    55    54    2
    66   181   184    1
    67   181   182    1
    68    95    98    1
    69    95    94    1
    70   143   142    2
    71   169   168    1
    72   184   185    1
    73    82    83    1
    74    66    54   am
    75    87    94   am
    76    87    86    1
    77   133   132    1
    78   133   140   am
    79    54    53    1
    80    98    99    1
    81   132   135    1
    82    85    83   am
    83    85    86    1
    84   183   182    2
    85   142   147   am
    86   142   141    1
    87   148   147    1
    88   148   151    1
    89    83    84    2
    90   168   165    1
    91   136   135    1
    92   136   137    1
    93   141   140    1
    94   141   144    1
    95    86    89    1
    96   185   186   ar
    97   185   187   ar
    98   186   188   ar
    99    53    56    1
   100    53    52    1
   101   151   152    1
   102    90    89    1
   103    90    91    1
   104    56    57    1
   105   137   138    2
   106   137   139   am
   107   164   165    1
   108   165   166    1
   109   187   189   ar
   110   179   177   ar
   111   146   144    1
   112   144   145    1
   113   175   174    2
   114   188   190   ar
   115   176   177    1
   116   176   173    1
   117    93    91   ar
   118    91    92   ar
   119   177   178   ar
   120   152   153    1
   121   174   173    1
   122    57    58   ar
   123    57    59   ar
   124   154   153   ar
   125   189   190   ar
   126    58    60   ar
   127   166   167    2
   128   173   172    1
   129   153   155   ar
   130    59    62   ar
   131    59    61   ar
   132    60    61   ar
   133    62    64   ar
   134    61    63   ar
   135   210   209    1
   136    64    65   ar
   137     7     5    1
   138   201   199    1
   139   209   208    1
   140   191   192    1
   141    63    65   ar
   142   208   207    1
   143   199   200    1
   144   199   198    2
   145   192   193    1
   146   192   195    1
   147     2     5    1
   148     2     1    1
   149     2     3    1
   150   196   195    1
   151   196   197    1
   152     5     6    1
   153    13    12    1
   154   198   197    1
   155    12     9    1
   156   207   206    1
   157   193   194    2
   158     8     3   am
   159     8     9    1
   160    46    45    2
   161     3     4    2
   162    50    51    1
   163    50    49    1
   164     9    10    1
   165    45    44    1
   166    23    22    1
   167    47    44    1
   168    47    48    1
   169   206   203    1
   170    49    48    1
   171    44    43    1
   172    22    24    1
   173    22    19    1
   174    10    14   am
   175    10    11    2
   176   203   202    1
   177   203   204    1
   178    14    15    1
   179    18    19    1
   180    18    16   am
   181    19    20    1
   182    30    29    1
   183   204   205    2
   184    29    26    1
   185    15    16    1
   186    25    20   am
   187    25    26    1
   188    16    17    2
   189    20    21    2
   190    26    27    1
   191    38    37    2
   192    37    36    1
   193    27    31   am
   194    27    28    2
   195    34    33    2
   196    31    32    1
   197    33    32    1
   198    33    35   am
   199    36    35    1
   200    36    39    1
   201    39    40    1
   202    40    42    1
   203    40    41    1
