@<TRIPOS>MOLECULE
tmp/3db3A00.pdb
 93 89 0 0 0
SMALL
GASTEIGER

@<TRIPOS>ATOM
      1  N         30.7930   -6.2800    3.0870 N.3    19  ASP19      -0.1239
      2  CA        30.5290   -5.1910    2.1640 C.3    19  ASP19       0.1674
      3  C         29.1750   -5.4110    1.5060 C.2    19  ASP19       0.2266
      4  O         28.9510   -6.4370    0.8730 O.2    19  ASP19      -0.2867
      5  CB        31.6030   -5.1150    1.0900 C.3    19  ASP19       0.1410
      6  CG        31.4310   -3.9160    0.2010 C.2    19  ASP19       0.3668
      7  OD1       30.9780   -4.0560   -0.9590 O.co2  19  ASP19      -0.2456
      8  OD2       31.7100   -2.8090    0.6890 O.co2  19  ASP19      -0.2456
      9  N         27.7020   -3.7720   -1.0700 N.3    21  ASN21      -0.1240
     10  CA        27.6970   -3.7440   -2.5250 C.3    21  ASN21       0.1653
     11  C         28.1350   -5.0590   -3.1850 C.2    21  ASN21       0.2266
     12  O         27.5030   -5.5140   -4.1270 O.2    21  ASN21      -0.2867
     13  CB        28.5120   -2.5610   -3.0570 C.3    21  ASN21       0.1155
     14  CG        28.6850   -2.5990   -4.5800 C.2    21  ASN21       0.2627
     15  OD1       29.8080   -2.7280   -5.0820 O.2    21  ASN21      -0.2716
     16  ND2       27.5730   -2.4990   -5.3160 N.am   21  ASN21      -0.0877
     17  N         35.3380   -8.9260    4.9550 N.3    25  PHE25      -0.1241
     18  CA        36.6740   -8.3590    5.1450 C.3    25  PHE25       0.1605
     19  C         37.0210   -8.2660    6.6220 C.2    25  PHE25       0.2264
     20  O         36.1380   -8.0060    7.4420 O.2    25  PHE25      -0.2867
     21  CB        36.7700   -6.9750    4.4970 C.3    25  PHE25       0.0534
     22  CG        36.5530   -6.9770    3.0100 C.ar   25  PHE25      -0.0203
     23  CD1       37.6400   -7.0060    2.1310 C.ar   25  PHE25      -0.0042
     24  CD2       35.2650   -6.9310    2.4760 C.ar   25  PHE25      -0.0042
     25  CE1       37.4390   -7.0180    0.7470 C.ar   25  PHE25      -0.0003
     26  CE2       35.0600   -6.9170    1.0950 C.ar   25  PHE25      -0.0003
     27  CZ        36.1390   -6.9660    0.2350 C.ar   25  PHE25      -0.0000
     28  N         38.0600   -1.0140    8.1800 N.3    44  TYR44      -0.1241
     29  CA        38.6690   -2.1860    7.5690 C.3    44  TYR44       0.1605
     30  C         40.1760   -2.2090    7.8450 C.2    44  TYR44       0.2264
     31  O         40.8380   -1.1730    7.7890 O.2    44  TYR44      -0.2867
     32  CB        38.4170   -2.1630    6.0650 C.3    44  TYR44       0.0534
     33  CG        36.9610   -2.3710    5.6590 C.ar   44  TYR44      -0.0201
     34  CD1       36.2060   -1.3380    5.0770 C.ar   44  TYR44      -0.0009
     35  CD2       36.3410   -3.6090    5.8490 C.ar   44  TYR44      -0.0009
     36  CE1       34.8480   -1.5500    4.6930 C.ar   44  TYR44       0.0417
     37  CE2       35.0160   -3.8260    5.4780 C.ar   44  TYR44       0.0417
     38  CZ        34.2770   -2.8040    4.9030 C.ar   44  TYR44       0.1957
     39  OH        32.9700   -3.0740    4.5530 O.3    44  TYR44      -0.2866
     40  N         42.0540   -1.4170    4.4570 N.3    47  TYR47      -0.1241
     41  CA        41.4910   -0.3250    3.6520 C.3    47  TYR47       0.1605
     42  C         41.1610    0.9290    4.4920 C.2    47  TYR47       0.2264
     43  O         39.9800    1.3100    4.6090 O.2    47  TYR47      -0.2867
     44  CB        40.2560   -0.8280    2.8890 C.3    47  TYR47       0.0534
     45  CG        40.5190   -2.0590    2.0470 C.ar   47  TYR47      -0.0201
     46  CD1       40.8400   -1.9470    0.6840 C.ar   47  TYR47      -0.0009
     47  CD2       40.4360   -3.3490    2.6060 C.ar   47  TYR47      -0.0009
     48  CE1       41.0820   -3.0910   -0.1030 C.ar   47  TYR47       0.0417
     49  CE2       40.6810   -4.4930    1.8330 C.ar   47  TYR47       0.0417
     50  CZ        41.0000   -4.3600    0.4820 C.ar   47  TYR47       0.1957
     51  OH        41.2390   -5.4940   -0.2740 O.3    47  TYR47      -0.2866
     52  N         38.9910    3.9340    3.1750 N.3    50  ASN50      -0.1240
     53  CA        37.5380    3.7780    3.1230 C.3    50  ASN50       0.1653
     54  C         36.8190    4.3590    4.3430 C.2    50  ASN50       0.2266
     55  O         35.5860    4.4090    4.3800 O.2    50  ASN50      -0.2867
     56  CB        37.1670    2.3050    2.9430 C.3    50  ASN50       0.1155
     57  CG        37.2210    1.8680    1.5010 C.2    50  ASN50       0.2627
     58  OD1       36.2040    1.8800    0.8130 O.2    50  ASN50      -0.2716
     59  ND2       38.4110    1.4920    1.0240 N.am   50  ASN50      -0.0877
     60  N         36.0800  -15.7570   -7.4040 N.3    82  ASN82      -0.1240
     61  CA        36.2550  -14.5860   -8.2630 C.3    82  ASN82       0.1653
     62  C         35.2460  -14.5660   -9.4190 C.2    82  ASN82       0.2266
     63  O         35.4450  -15.2210  -10.4370 O.2    82  ASN82      -0.2867
     64  CB        37.6860  -14.5310   -8.8190 C.3    82  ASN82       0.1155
     65  CG        38.0300  -13.1860   -9.4270 C.2    82  ASN82       0.2627
     66  OD1       37.1630  -12.4720   -9.9230 O.2    82  ASN82      -0.2716
     67  ND2       39.3110  -12.8240   -9.3740 N.am   82  ASN82      -0.0877
     68  N         42.1060  -16.2870   -8.0180 N.3    89  ARG89      -0.1231
     69  CA        41.8740  -15.8650   -6.6410 C.3    89  ARG89       0.1694
     70  C         40.9670  -14.6220   -6.5810 C.2    89  ARG89       0.2593
     71  O         41.0760  -13.7230   -7.4190 O.2    89  ARG89      -0.2718
     72  CB        43.2310  -15.5340   -6.0310 C.3    89  ARG89       0.0321
     73  CG        43.2590  -15.3790   -4.5320 C.3    89  ARG89       0.0489
     74  CD        43.7810  -16.6320   -3.8720 C.3    89  ARG89       0.2205
     75  NE        43.6030  -16.5710   -2.4290 N.pl3  89  ARG89      -0.0865
     76  CZ        43.6060  -17.6300   -1.6300 C.cat  89  ARG89       0.5346
     77  NH1       43.7830  -18.8440   -2.1250 N.pl3  89  ARG89       0.1354
     78  NH2       43.4300  -17.4700   -0.3310 N.pl3  89  ARG89       0.1354
     79  N         40.0690  -14.5800   -5.6010 N.am   90  GLY90      -0.1942
     80  CA        39.1610  -13.4430   -5.4490 C.3    90  GLY90       0.2014
     81  C         38.9420  -13.0280   -4.0060 C.2    90  GLY90       0.2638
     82  O         39.9040  -12.8290   -3.2480 O.2    90  GLY90      -0.2714
     83  N         37.6730  -12.8950   -3.6260 N.am   91  PHE91      -0.1973
     84  CA        37.3100  -12.4740   -2.2600 C.3    91  PHE91       0.1639
     85  C         36.5010  -13.5560   -1.5820 C.2    91  PHE91       0.2290
     86  O         36.1370  -14.5480   -2.2130 O.2    91  PHE91      -0.2864
     87  CB        36.5360  -11.1430   -2.2580 C.3    91  PHE91       0.0560
     88  CG        37.2590  -10.0140   -2.9720 C.ar   91  PHE91      -0.0200
     89  CD1       38.1510   -9.1930   -2.2830 C.ar   91  PHE91      -0.0042
     90  CD2       37.0690   -9.7970   -4.3330 C.ar   91  PHE91      -0.0042
     91  CE1       38.8290   -8.1610   -2.9330 C.ar   91  PHE91      -0.0003
     92  CE2       37.7350   -8.7640   -4.9880 C.ar   91  PHE91      -0.0003
     93  CZ        38.6200   -7.9450   -4.2800 C.ar   91  PHE91      -0.0000
@<TRIPOS>BOND
     1    63    62    2
     2    66    65    2
     3    65    67   am
     4    65    64    1
     5    62    61    1
     6    64    61    1
     7    61    60    1
     8    68    69    1
     9    71    70    2
    10    69    70    1
    11    69    72    1
    12    70    79   am
    13    72    73    1
    14    79    80    1
    15    80    81    1
    16    16    14   am
    17    15    14    2
    18    92    90   ar
    19    92    93   ar
    20    14    13    1
    21    73    74    1
    22    90    88   ar
    23    93    91   ar
    24    12    11    2
    25    81    83   am
    26    81    82    2
    27    74    75    1
    28    83    84    1
    29    11    10    1
    30    13    10    1
    31    88    89   ar
    32    88    87    1
    33    91    89   ar
    34    10     9    1
    35    75    76    2
    36    84    87    1
    37    84    85    1
    38    86    85    2
    39    77    76    1
    40    76    78    1
    41     7     6   ar
    42    51    50    1
    43    48    50   ar
    44    48    46   ar
    45     6     8   ar
    46     6     5    1
    47    27    25   ar
    48    27    26   ar
    49    50    49   ar
    50    46    45   ar
    51    25    23   ar
    52    58    57    2
    53     4     3    2
    54    59    57   am
    55     5     2    1
    56    26    24   ar
    57    57    56    1
    58     3     2    1
    59    49    47   ar
    60    45    47   ar
    61    45    44    1
    62    23    22   ar
    63     2     1    1
    64    24    22   ar
    65    44    41    1
    66    56    53    1
    67    22    21    1
    68    53    52    1
    69    53    54    1
    70    41    40    1
    71    41    42    1
    72    54    55    2
    73    42    43    2
    74    21    18    1
    75    39    38    1
    76    36    38   ar
    77    36    34   ar
    78    38    37   ar
    79    17    18    1
    80    34    33   ar
    81    18    19    1
    82    37    35   ar
    83    33    35   ar
    84    33    32    1
    85    32    29    1
    86    19    20    2
    87    29    30    1
    88    29    28    1
    89    31    30    2
