@<TRIPOS>MOLECULE
tmp/3db6A00.pdb
 212 199 0 0 0
SMALL
GASTEIGER

@<TRIPOS>ATOM
      1  N         86.4740   85.0490   16.4420 N.3    22  LEU22      -0.1231
      2  CA        87.4680   84.0590   16.0490 C.3    22  LEU22       0.1693
      3  C         86.8430   82.7350   15.6310 C.2    22  LEU22       0.2593
      4  O         87.4540   81.9740   14.8830 O.2    22  LEU22      -0.2718
      5  CB        88.4730   83.8250   17.1760 C.3    22  LEU22       0.0284
      6  CG        89.4010   84.9630   17.6100 C.3    22  LEU22       0.0019
      7  CD1       90.1390   84.5410   18.8570 C.3    22  LEU22       0.0001
      8  CD2       90.3910   85.3570   16.5210 C.3    22  LEU22       0.0001
      9  N         85.6330   82.4630   16.1140 N.am   23  GLY23      -0.1942
     10  CA        84.9550   81.2010   15.8280 C.3    23  GLY23       0.2014
     11  C         84.0350   80.7670   16.9510 C.2    23  GLY23       0.2639
     12  O         84.0070   81.3890   18.0140 O.2    23  GLY23      -0.2714
     13  N         83.2800   79.6980   16.7110 N.am   24  LYS24      -0.1963
     14  CA        82.3310   79.1710   17.6930 C.3    24  LYS24       0.1728
     15  C         82.5060   77.6640   17.8990 C.2    24  LYS24       0.2616
     16  O         83.2700   77.0160   17.1820 O.2    24  LYS24      -0.2715
     17  CB        80.8880   79.5030   17.2860 C.3    24  LYS24       0.0311
     18  CG        80.4070   78.8280   16.0040 C.3    24  LYS24       0.0038
     19  CD        78.9120   79.0310   15.7980 C.3    24  LYS24       0.0206
     20  CE        78.4590   78.4510   14.4670 C.3    24  LYS24       0.1093
     21  NZ        77.0280   78.7540   14.1820 N.3    24  LYS24      -0.1314
     22  N         81.7950   77.1130   18.8790 N.am   25  GLY25      -0.1955
     23  CA        81.8940   75.6910   19.1900 C.3    25  GLY25       0.1869
     24  C         81.0130   75.2630   20.3460 C.2    25  GLY25       0.2309
     25  O         81.2940   75.5840   21.5060 O.2    25  GLY25      -0.2863
     26  N         78.2960   75.4630   22.8130 N.3    27  PHE27      -0.1227
     27  CA        77.5720   76.5640   23.4360 C.3    27  PHE27       0.1736
     28  C         78.4040   77.8470   23.4410 C.2    27  PHE27       0.2595
     29  O         77.8560   78.9470   23.5480 O.2    27  PHE27      -0.2718
     30  CB        77.1770   76.1790   24.9050 C.3    27  PHE27       0.0547
     31  CG        76.3090   74.9460   25.0010 C.ar   27  PHE27      -0.0202
     32  CD1       75.1160   74.9180   24.3490 C.ar   27  PHE27      -0.0042
     33  CD2       76.7890   73.8140   25.6490 C.ar   27  PHE27      -0.0042
     34  CE1       74.3070   73.7840   24.3890 C.ar   27  PHE27      -0.0003
     35  CE2       75.9980   72.6800   25.6610 C.ar   27  PHE27      -0.0003
     36  CZ        74.7790   72.6760   24.9750 C.ar   27  PHE27      -0.0000
     37  N         79.7220   77.6990   23.3130 N.am   28  ALA28      -0.1980
     38  CA        80.6530   78.8220   23.4430 C.3    28  ALA28       0.1597
     39  C         80.9350   79.5380   22.1230 C.2    28  ALA28       0.2287
     40  O         80.9390   78.9240   21.0540 O.2    28  ALA28      -0.2864
     41  CB        81.9520   78.3560   24.0830 C.3    28  ALA28       0.0319
     42  N         83.8650   82.2000   20.6860 N.3    30  CYS30      -0.1235
     43  CA        85.1810   82.7520   21.0000 C.3    30  CYS30       0.1677
     44  C         85.4390   84.0940   20.3200 C.2    30  CYS30       0.2270
     45  O         84.9720   84.3370   19.2080 O.2    30  CYS30      -0.2867
     46  CB        86.2760   81.7500   20.6250 C.3    30  CYS30       0.0956
     47  SG        87.9010   82.1150   21.3330 S.3    30  CYS30      -0.0801
     48  N         92.5680   85.0050   23.7230 N.3    43  ALA43      -0.1245
     49  CA        91.3420   84.4210   23.2000 C.3    43  ALA43       0.1562
     50  C         90.3170   84.2960   24.3270 C.2    43  ALA43       0.2260
     51  O         90.5150   83.5450   25.2860 O.2    43  ALA43      -0.2867
     52  CB        91.6210   83.0680   22.5650 C.3    43  ALA43       0.0290
     53  N         86.6770   83.1850   25.5570 N.3    45  LYS45      -0.1245
     54  CA        85.4840   82.3830   25.3060 C.3    45  LYS45       0.1561
     55  C         84.3050   82.8760   26.1380 C.2    45  LYS45       0.2260
     56  O         84.3880   82.9730   27.3630 O.2    45  LYS45      -0.2867
     57  CB        85.7470   80.8950   25.5520 C.3    45  LYS45       0.0271
     58  CG        86.4380   80.2020   24.3920 C.3    45  LYS45       0.0035
     59  CD        86.0100   78.7520   24.2890 C.3    45  LYS45       0.0206
     60  CE        86.6080   78.0810   23.0650 C.3    45  LYS45       0.1093
     61  NZ        86.2510   76.6360   23.0150 N.3    45  LYS45      -0.1314
     62  N         80.5990   82.0350   27.1210 N.3    47  VAL47      -0.1245
     63  CA        79.5620   80.9970   27.1500 C.3    47  VAL47       0.1561
     64  C         78.3460   81.4120   27.9960 C.2    47  VAL47       0.2260
     65  O         78.4870   81.7180   29.1820 O.2    47  VAL47      -0.2867
     66  CB        80.1340   79.5920   27.5560 C.3    47  VAL47       0.0252
     67  CG1       80.7990   79.6230   28.9280 C.3    47  VAL47       0.0019
     68  CG2       79.0550   78.5120   27.4900 C.3    47  VAL47       0.0019
     69  N         74.9000   76.2040   30.9110 N.3    52  LEU52      -0.1245
     70  CA        75.3210   75.5370   32.1450 C.3    52  LEU52       0.1561
     71  C         74.2070   75.5470   33.1950 C.2    52  LEU52       0.2260
     72  O         74.4240   75.9500   34.3420 O.2    52  LEU52      -0.2867
     73  CB        76.5970   76.1810   32.7190 C.3    52  LEU52       0.0270
     74  CG        77.9250   76.2720   31.9480 C.3    52  LEU52       0.0019
     75  CD1       78.2650   74.9880   31.1840 C.3    52  LEU52       0.0001
     76  CD2       77.9490   77.4820   31.0160 C.3    52  LEU52       0.0001
     77  N         82.7670   71.6390   33.8520 N.3    61  MET61      -0.1245
     78  CA        83.4880   72.8680   33.5600 C.3    61  MET61       0.1570
     79  C         84.4640   73.2270   34.6810 C.2    61  MET61       0.2261
     80  O         85.6000   73.6160   34.4110 O.2    61  MET61      -0.2867
     81  CB        82.5040   74.0130   33.3200 C.3    61  MET61       0.0387
     82  CG        83.0850   75.1810   32.5430 C.3    61  MET61       0.0595
     83  SD        81.9590   76.5870   32.4530 S.3    61  MET61      -0.1393
     84  CE        82.0870   77.2430   34.1200 C.3    61  MET61       0.0692
     85  N         87.3520   70.8560   34.6160 N.3    64  GLU64      -0.1231
     86  CA        88.1910   71.2160   33.4710 C.3    64  GLU64       0.1699
     87  C         89.0650   72.4260   33.7710 C.2    64  GLU64       0.2592
     88  O         90.2540   72.4290   33.4540 O.2    64  GLU64      -0.2718
     89  CB        87.3390   71.4910   32.2290 C.3    64  GLU64       0.0402
     90  CG        88.1640   71.7100   30.9670 C.3    64  GLU64       0.1161
     91  CD        87.3590   72.2240   29.7880 C.2    64  GLU64       0.3649
     92  OE1       87.9700   72.8680   28.9110 O.co2  64  GLU64      -0.2457
     93  OE2       86.1310   71.9900   29.7280 O.co2  64  GLU64      -0.2457
     94  N         88.4640   73.4460   34.3770 N.am   65  ILE65      -0.1980
     95  CA        89.1730   74.6760   34.7220 C.3    65  ILE65       0.1595
     96  C         90.3370   74.3940   35.6730 C.2    65  ILE65       0.2287
     97  O         91.4460   74.8830   35.4560 O.2    65  ILE65      -0.2864
     98  CB        88.2150   75.7480   35.3080 C.3    65  ILE65       0.0276
     99  CG1       87.3220   76.3220   34.2000 C.3    65  ILE65       0.0022
    100  CG2       88.9990   76.8720   35.9850 C.3    65  ILE65       0.0022
    101  CD1       86.0350   76.9750   34.6940 C.3    65  ILE65       0.0001
    102  N         93.1700   72.6930   33.7490 N.3    68  HIS68      -0.1241
    103  CA        93.7650   73.6210   32.7830 C.3    68  HIS68       0.1621
    104  C         94.5280   74.7660   33.4630 C.2    68  HIS68       0.2264
    105  O         95.5950   75.1750   32.9930 O.2    68  HIS68      -0.2867
    106  CB        92.6820   74.1860   31.8560 C.3    68  HIS68       0.0745
    107  CG        93.1800   74.5750   30.4960 C.ar   68  HIS68       0.0817
    108  ND1       92.4760   74.3000   29.3440 N.ar   68  HIS68      -0.2268
    109  CD2       94.3080   75.2140   30.1030 C.ar   68  HIS68       0.1154
    110  CE1       93.1450   74.7580   28.3010 C.ar   68  HIS68       0.1986
    111  NE2       94.2610   75.3150   28.7340 N.ar   68  HIS68      -0.2212
    112  N         98.0250   75.1580   25.5000 N.3    77  VAL77      -0.1245
    113  CA        97.2880   76.4280   25.5010 C.3    77  VAL77       0.1561
    114  C         97.1380   76.9710   26.9240 C.2    77  VAL77       0.2260
    115  O         96.6000   76.2940   27.8050 O.2    77  VAL77      -0.2867
    116  CB        95.8770   76.2860   24.8460 C.3    77  VAL77       0.0252
    117  CG1       95.1430   77.6250   24.8380 C.3    77  VAL77       0.0019
    118  CG2       95.9760   75.7360   23.4270 C.3    77  VAL77       0.0019
    119  N         95.8880   79.0050   30.2130 N.3    79  PHE79      -0.1241
    120  CA        94.6280   79.3740   30.8490 C.3    79  PHE79       0.1605
    121  C         94.9090   80.5690   31.7520 C.2    79  PHE79       0.2264
    122  O         95.4660   80.4150   32.8390 O.2    79  PHE79      -0.2867
    123  CB        94.0930   78.1990   31.6650 C.3    79  PHE79       0.0534
    124  CG        92.6770   78.3710   32.1430 C.ar   79  PHE79      -0.0203
    125  CD1       91.6280   77.7590   31.4680 C.ar   79  PHE79      -0.0042
    126  CD2       92.3920   79.1200   33.2820 C.ar   79  PHE79      -0.0042
    127  CE1       90.3180   77.9010   31.9090 C.ar   79  PHE79      -0.0003
    128  CE2       91.0840   79.2720   33.7270 C.ar   79  PHE79      -0.0003
    129  CZ        90.0460   78.6620   33.0380 C.ar   79  PHE79      -0.0000
    130  N         86.2110   82.9900   29.7980 N.3    91  VAL91      -0.1245
    131  CA        87.4750   82.2710   29.9710 C.3    91  VAL91       0.1561
    132  C         88.5550   82.9020   29.0970 C.2    91  VAL91       0.2260
    133  O         88.3940   83.0070   27.8840 O.2    91  VAL91      -0.2867
    134  CB        87.3320   80.7620   29.6410 C.3    91  VAL91       0.0252
    135  CG1       88.6780   80.0590   29.7270 C.3    91  VAL91       0.0019
    136  CG2       86.3280   80.0920   30.5740 C.3    91  VAL91       0.0019
    137  N         92.1310   82.7730   27.4220 N.3    93  LEU93      -0.1231
    138  CA        93.1040   81.7790   26.9610 C.3    93  LEU93       0.1693
    139  C         94.1660   82.3810   26.0480 C.2    93  LEU93       0.2592
    140  O         93.9950   83.4860   25.5290 O.2    93  LEU93      -0.2718
    141  CB        92.3860   80.6580   26.2170 C.3    93  LEU93       0.0284
    142  CG        91.3690   79.8500   27.0100 C.3    93  LEU93       0.0019
    143  CD1       90.0970   79.6800   26.1990 C.3    93  LEU93       0.0001
    144  CD2       91.9540   78.5070   27.4300 C.3    93  LEU93       0.0001
    145  N         95.2580   81.6390   25.8560 N.am   94  GLU94      -0.1966
    146  CA        96.3270   82.0060   24.9220 C.3    94  GLU94       0.1733
    147  C         95.7730   82.0700   23.5020 C.2    94  GLU94       0.2616
    148  O         94.9740   81.2200   23.1010 O.2    94  GLU94      -0.2715
    149  CB        97.4650   80.9830   25.0010 C.3    94  GLU94       0.0429
    150  CG        98.7720   81.3960   24.3170 C.3    94  GLU94       0.1163
    151  CD        99.8690   80.3340   24.4270 C.2    94  GLU94       0.3649
    152  OE1       99.7360   79.4100   25.2630 O.co2  94  GLU94      -0.2457
    153  OE2      100.8690   80.4250   23.6790 O.co2  94  GLU94      -0.2457
    154  N         96.1870   83.0850   22.7510 N.am   95  ILE95      -0.1963
    155  CA        95.7050   83.2690   21.3830 C.3    95  ILE95       0.1727
    156  C         96.4260   82.3320   20.4050 C.2    95  ILE95       0.2616
    157  O         97.6550   82.2190   20.4240 O.2    95  ILE95      -0.2715
    158  CB        95.7860   84.7660   20.9340 C.3    95  ILE95       0.0290
    159  CG1       94.9830   85.0060   19.6530 C.3    95  ILE95       0.0022
    160  CG2       97.2380   85.2450   20.7770 C.3    95  ILE95       0.0023
    161  CD1       93.4980   85.1060   19.8670 C.3    95  ILE95       0.0001
    162  N         95.6490   81.6480   19.5710 N.am   96  CYS96      -0.1954
    163  CA        96.1960   80.7880   18.5250 C.3    96  CYS96       0.1843
    164  C         95.6010   81.1610   17.1670 C.2    96  CYS96       0.2625
    165  O         94.6070   80.5810   16.7190 O.2    96  CYS96      -0.2714
    166  CB        95.9590   79.3140   18.8540 C.3    96  CYS96       0.0997
    167  SG        96.9130   78.7220   20.2620 S.3    96  CYS96      -0.0797
    168  N         96.2390   82.1270   16.5150 N.am   97  ARG97      -0.1977
    169  CA        95.6980   82.7610   15.3120 C.3    97  ARG97       0.1597
    170  C         95.7120   81.9010   14.0370 C.2    97  ARG97       0.2287
    171  O         95.1070   82.2780   13.0310 O.2    97  ARG97      -0.2864
    172  CB        96.4080   84.1000   15.0700 C.3    97  ARG97       0.0334
    173  CG        96.1230   85.1390   16.1450 C.3    97  ARG97       0.0492
    174  CD        97.1280   86.2770   16.1370 C.3    97  ARG97       0.2205
    175  NE        96.9710   87.1210   17.3200 N.pl3  97  ARG97      -0.0865
    176  CZ        97.5170   88.3240   17.4740 C.cat  97  ARG97       0.5346
    177  NH1       98.2690   88.8550   16.5170 N.pl3  97  ARG97       0.1354
    178  NH2       97.3040   89.0030   18.5940 N.pl3  97  ARG97       0.1354
    179  N         94.4900   78.7660   13.4480 N.3    99  ARG99      -0.1245
    180  CA        93.5330   77.6490   13.5540 C.3    99  ARG99       0.1563
    181  C         94.1470   76.3620   14.1270 C.2    99  ARG99       0.2260
    182  O         95.2010   76.4010   14.7660 O.2    99  ARG99      -0.2867
    183  CB        92.8100   77.3990   12.2170 C.3    99  ARG99       0.0307
    184  CG        91.9330   78.5630   11.7560 C.3    99  ARG99       0.0489
    185  CD        90.9940   79.0330   12.8710 C.3    99  ARG99       0.2205
    186  NE        90.9580   80.4940   12.9780 N.pl3  99  ARG99      -0.0865
    187  CZ        89.8530   81.2370   12.9380 C.cat  99  ARG99       0.5346
    188  NH1       88.6590   80.6650   12.8090 N.pl3  99  ARG99       0.1354
    189  NH2       89.9430   82.5590   13.0430 N.pl3  99  ARG99       0.1354
    190  N         96.2800   73.1670   18.3950 N.3   146  PHE146     -0.1241
    191  CA        96.2070   74.5260   17.8760 C.3   146  PHE146      0.1605
    192  C         97.5680   75.0210   17.3990 C.2   146  PHE146      0.2264
    193  O         98.6130   74.5510   17.8520 O.2   146  PHE146     -0.2867
    194  CB        95.6310   75.4740   18.9340 C.3   146  PHE146      0.0534
    195  CG        94.2070   75.1680   19.3150 C.ar  146  PHE146     -0.0203
    196  CD1       93.1530   75.8570   18.7240 C.ar  146  PHE146     -0.0042
    197  CD2       93.9170   74.1910   20.2640 C.ar  146  PHE146     -0.0042
    198  CE1       91.8290   75.5750   19.0720 C.ar  146  PHE146     -0.0003
    199  CE2       92.6010   73.9020   20.6160 C.ar  146  PHE146     -0.0003
    200  CZ        91.5530   74.5950   20.0190 C.ar  146  PHE146     -0.0000
    201  N         95.1700   71.9020   23.4380 N.3   156  GLY156     -0.1210
    202  CA        94.0890   72.5280   24.1910 C.3   156  GLY156      0.1956
    203  C         92.8920   71.6170   24.3630 C.2   156  GLY156      0.2611
    204  O         92.9640   70.4190   24.0730 O.2   156  GLY156     -0.2717
    205  N         91.7950   72.2000   24.8480 N.am  157  ASP157     -0.1973
    206  CA        90.5060   71.5160   25.0130 C.3   157  ASP157      0.1709
    207  C         90.5970   70.3190   25.9700 C.2   157  ASP157      0.2293
    208  O         90.7650   69.1750   25.5460 O.2   157  ASP157     -0.2864
    209  CB        89.9220   71.1300   23.6410 C.3   157  ASP157      0.1436
    210  CG        88.6570   70.2980   23.7420 C.2   157  ASP157      0.3671
    211  OD1       87.9410   70.3910   24.7660 O.co2 157  ASP157     -0.2456
    212  OD2       88.3800   69.5460   22.7810 O.co2 157  ASP157     -0.2456
@<TRIPOS>BOND
     1   184   183    1
     2   184   185    1
     3   183   180    1
     4   188   187    1
     5   185   186    1
     6   187   186    2
     7   187   189    1
     8   171   170    2
     9   179   180    1
    10   180   181    1
    11   170   169    1
    12   181   182    2
    13    21    20    1
    14    20    19    1
    15     4     3    2
    16   172   169    1
    17   172   173    1
    18   169   168    1
    19     3     2    1
    20     3     9   am
    21    19    18    1
    22    10     9    1
    23    10    11    1
    24    18    17    1
    25     2     1    1
    26     2     5    1
    27   174   173    1
    28   174   175    1
    29   168   164   am
    30   177   176    1
    31     8     6    1
    32    13    11   am
    33    13    14    1
    34   165   164    2
    35    11    12    2
    36   164   163    1
    37     5     6    1
    38    16    15    2
    39    17    14    1
    40   175   176    2
    41   192   193    2
    42   192   191    1
    43   176   178    1
    44     6     7    1
    45    14    15    1
    46   191   190    1
    47   191   194    1
    48    15    22   am
    49   163   166    1
    50   163   162    1
    51   196   198   ar
    52   196   195   ar
    53   166   167    1
    54    22    23    1
    55   194   195    1
    56   198   200   ar
    57    23    24    1
    58    45    44    2
    59   195   197   ar
    60   162   156   am
    61   159   161    1
    62   159   158    1
    63   200   199   ar
    64   197   199   ar
    65    44    43    1
    66    24    25    2
    67   156   157    2
    68   156   155    1
    69    46    43    1
    70    46    47    1
    71    42    43    1
    72   160   158    1
    73   158   155    1
    74    40    39    2
    75   155   154    1
    76    39    38    1
    77    52    49    1
    78   154   147   am
    79   212   210   ar
    80    26    27    1
    81    61    60    1
    82    60    59    1
    83   148   147    2
    84    49    48    1
    85    49    50    1
    86    37    28   am
    87    37    38    1
    88   118   116    1
    89    27    28    1
    90    27    30    1
    91   201   202    1
    92    28    29    2
    93    38    41    1
    94   147   146    1
    95   209   210    1
    96   209   206    1
    97   153   151   ar
    98   210   211   ar
    99   204   203    2
   100   202   203    1
   101    59    58    1
   102   150   151    1
   103   150   149    1
   104    50    51    2
   105    32    34   ar
   106    32    31   ar
   107   203   205   am
   108    34    36   ar
   109    58    57    1
   110   151   152   ar
   111   117   116    1
   112   116   113    1
   113   205   206    1
   114    30    31    1
   115   146   149    1
   116   146   145    1
   117    36    35   ar
   118    31    33   ar
   119   206   207    1
   120    54    57    1
   121    54    53    1
   122    54    55    1
   123   112   113    1
   124   113   114    1
   125   140   139    2
   126   208   207    2
   127    33    35   ar
   128   145   139   am
   129   139   138    1
   130    55    56    2
   131   143   142    1
   132   141   138    1
   133   141   142    1
   134   114   115    2
   135   138   137    1
   136   142   144    1
   137    62    63    1
   138    63    66    1
   139    63    64    1
   140    68    66    1
   141    66    67    1
   142   133   132    2
   143    64    65    2
   144   110   111   ar
   145   110   108   ar
   146   111   109   ar
   147    92    91   ar
   148   132   131    1
   149   108   107   ar
   150   134   135    1
   151   134   131    1
   152   134   136    1
   153    93    91   ar
   154    91    90    1
   155   130   131    1
   156   109   107   ar
   157   119   120    1
   158   107   106    1
   159   120   123    1
   160   120   121    1
   161    69    70    1
   162    90    89    1
   163    76    74    1
   164    75    74    1
   165   125   127   ar
   166   125   124   ar
   167   123   124    1
   168   121   122    2
   169   106   103    1
   170   127   129   ar
   171    74    73    1
   172   124   126   ar
   173    70    73    1
   174    70    71    1
   175    89    86    1
   176    83    82    1
   177    83    84    1
   178    82    81    1
   179   103   104    1
   180   103   102    1
   181   105   104    2
   182   129   128   ar
   183    71    72    2
   184   126   128   ar
   185    81    78    1
   186    88    87    2
   187    86    87    1
   188    86    85    1
   189    78    77    1
   190    78    79    1
   191    87    94   am
   192    99   101    1
   193    99    98    1
   194    94    95    1
   195    80    79    2
   196    95    98    1
   197    95    96    1
   198    98   100    1
   199    97    96    2
