@<TRIPOS>MOLECULE
tmp/3db8A00.pdb
 176 163 0 0 0
SMALL
GASTEIGER

@<TRIPOS>ATOM
      1  N        117.8140   44.7540   47.4510 N.3    20  ARG20      -0.1245
      2  CA       118.9250   45.6070   47.8880 C.3    20  ARG20       0.1563
      3  C        118.4910   47.0300   48.2250 C.2    20  ARG20       0.2260
      4  O        117.5890   47.5830   47.5980 O.2    20  ARG20      -0.2867
      5  CB       120.0930   45.5930   46.8780 C.3    20  ARG20       0.0307
      6  CG       119.8850   46.4070   45.6050 C.3    20  ARG20       0.0489
      7  CD       121.1030   46.3460   44.6810 C.3    20  ARG20       0.2205
      8  NE       120.9490   47.2240   43.5180 N.pl3  20  ARG20      -0.0865
      9  CZ       121.4970   48.4330   43.3990 C.cat  20  ARG20       0.5346
     10  NH1      122.2600   48.9300   44.3670 N.pl3  20  ARG20       0.1354
     11  NH2      121.2830   49.1520   42.3040 N.pl3  20  ARG20       0.1354
     12  N        118.6740   51.0550   48.3710 N.3    22  LEU22      -0.1231
     13  CA       118.9730   51.9950   47.2860 C.3    22  LEU22       0.1693
     14  C        119.2690   53.4080   47.7580 C.2    22  LEU22       0.2593
     15  O        120.0090   54.1350   47.0990 O.2    22  LEU22      -0.2718
     16  CB       117.8420   52.0320   46.2590 C.3    22  LEU22       0.0284
     17  CG       117.5840   50.8020   45.3880 C.3    22  LEU22       0.0019
     18  CD1      116.3700   51.0610   44.5140 C.3    22  LEU22       0.0001
     19  CD2      118.7950   50.4350   44.5380 C.3    22  LEU22       0.0001
     20  N        118.6860   53.7980   48.8870 N.am   23  GLY23      -0.1942
     21  CA       118.8890   55.1400   49.4280 C.3    23  GLY23       0.2014
     22  C        117.8050   55.5490   50.4040 C.2    23  GLY23       0.2639
     23  O        116.9540   54.7370   50.7700 O.2    23  GLY23      -0.2714
     24  N        117.8430   56.8100   50.8280 N.am   24  LYS24      -0.1963
     25  CA       116.8560   57.3440   51.7700 C.3    24  LYS24       0.1728
     26  C        116.5510   58.8270   51.5360 C.2    24  LYS24       0.2616
     27  O        117.3370   59.5470   50.9150 O.2    24  LYS24      -0.2715
     28  CB       117.2870   57.0860   53.2250 C.3    24  LYS24       0.0311
     29  CG       118.6620   57.6260   53.6060 C.3    24  LYS24       0.0038
     30  CD       119.0650   57.1650   55.0040 C.3    24  LYS24       0.0206
     31  CE       120.3590   57.8270   55.4590 C.3    24  LYS24       0.1093
     32  NZ       120.8090   57.2920   56.7760 N.3    24  LYS24      -0.1314
     33  N        115.3940   59.2630   52.0280 N.am   25  GLY25      -0.1955
     34  CA       114.9760   60.6560   51.9380 C.3    25  GLY25       0.1869
     35  C        114.0980   61.0410   53.1120 C.2    25  GLY25       0.2309
     36  O        112.9460   60.6110   53.1970 O.2    25  GLY25      -0.2863
     37  N        111.5300   58.6830   54.5570 N.3    28  ALA28      -0.1245
     38  CA       111.3110   57.6240   53.5700 C.3    28  ALA28       0.1562
     39  C        112.5990   56.9110   53.1610 C.2    28  ALA28       0.2260
     40  O        113.6430   57.5440   53.0090 O.2    28  ALA28      -0.2867
     41  CB       110.6040   58.1880   52.3440 C.3    28  ALA28       0.0290
     42  N        114.2230   53.8770   50.3640 N.3    30  CYS30      -0.1235
     43  CA       113.9830   53.1980   49.0870 C.3    30  CYS30       0.1677
     44  C        114.7570   51.8860   48.9140 C.2    30  CYS30       0.2270
     45  O        115.9700   51.8250   49.1350 O.2    30  CYS30      -0.2867
     46  CB       114.2870   54.1360   47.9200 C.3    30  CYS30       0.0956
     47  SG       113.9940   53.4260   46.2780 S.3    30  CYS30      -0.0801
     48  N        111.4260   50.2820   41.9620 N.3    43  ALA43      -0.1245
     49  CA       111.9480   50.9920   43.1190 C.3    43  ALA43       0.1562
     50  C        110.8190   51.2570   44.1200 C.2    43  ALA43       0.2260
     51  O        109.8660   51.9860   43.8270 O.2    43  ALA43      -0.2867
     52  CB       112.6070   52.2840   42.6890 C.3    43  ALA43       0.0290
     53  N        109.4790   52.9270   47.3030 N.3    45  LYS45      -0.1245
     54  CA       109.5950   53.9730   48.3060 C.3    45  LYS45       0.1561
     55  C        108.7650   53.5660   49.5130 C.2    45  LYS45       0.2260
     56  O        107.5380   53.4900   49.4310 O.2    45  LYS45      -0.2867
     57  CB       109.1130   55.3110   47.7450 C.3    45  LYS45       0.0271
     58  CG       109.5260   56.5450   48.5730 C.3    45  LYS45       0.0035
     59  CD       108.9980   57.8380   47.9410 C.3    45  LYS45       0.0206
     60  CE       109.9270   59.0090   48.1890 C.3    45  LYS45       0.1093
     61  NZ       109.9170   59.9430   47.0200 N.3    45  LYS45      -0.1314
     62  N        109.4910   59.8380   36.1750 N.3    77  VAL77      -0.1245
     63  CA       109.5290   58.5030   36.7760 C.3    77  VAL77       0.1561
     64  C        108.1470   57.8540   36.7130 C.2    77  VAL77       0.2260
     65  O        107.1500   58.4460   37.1450 O.2    77  VAL77      -0.2867
     66  CB       110.0410   58.5310   38.2440 C.3    77  VAL77       0.0252
     67  CG1      109.9730   57.1430   38.8750 C.3    77  VAL77       0.0019
     68  CG2      111.4630   59.0700   38.3060 C.3    77  VAL77       0.0019
     69  N        107.6070   52.2360   42.0540 N.3    93  LEU93      -0.1231
     70  CA       108.0940   53.1870   41.0500 C.3    93  LEU93       0.1693
     71  C        109.0370   52.5560   40.0170 C.2    93  LEU93       0.2592
     72  O        109.4630   51.4070   40.1690 O.2    93  LEU93      -0.2718
     73  CB       108.7920   54.3710   41.7320 C.3    93  LEU93       0.0284
     74  CG       107.9610   55.3650   42.5460 C.3    93  LEU93       0.0019
     75  CD1      108.8600   56.1610   43.4740 C.3    93  LEU93       0.0001
     76  CD2      107.1600   56.3010   41.6400 C.3    93  LEU93       0.0001
     77  N        109.3480   53.3280   38.9720 N.am   94  GLU94      -0.1966
     78  CA       110.2600   52.9160   37.8980 C.3    94  GLU94       0.1733
     79  C        111.7020   52.9330   38.3920 C.2    94  GLU94       0.2616
     80  O        112.1240   53.8780   39.0600 O.2    94  GLU94      -0.2715
     81  CB       110.1100   53.8490   36.6920 C.3    94  GLU94       0.0429
     82  CG       110.8060   53.3730   35.4170 C.3    94  GLU94       0.1163
     83  CD       110.9430   54.4630   34.3580 C.2    94  GLU94       0.3649
     84  OE1      110.2900   55.5290   34.4790 O.co2  94  GLU94      -0.2457
     85  OE2      111.7150   54.2470   33.3970 O.co2  94  GLU94      -0.2457
     86  N        112.4550   51.8910   38.0540 N.am   95  ILE95      -0.1963
     87  CA       113.8240   51.7370   38.5540 C.3    95  ILE95       0.1727
     88  C        114.8820   52.5230   37.7540 C.2    95  ILE95       0.2616
     89  O        115.1360   52.2420   36.5780 O.2    95  ILE95      -0.2715
     90  CB       114.2050   50.2290   38.7050 C.3    95  ILE95       0.0290
     91  CG1      115.5320   50.0690   39.4550 C.3    95  ILE95       0.0022
     92  CG2      114.2040   49.4970   37.3450 C.3    95  ILE95       0.0023
     93  CD1      115.4360   50.3370   40.9430 C.3    95  ILE95       0.0001
     94  N        115.4890   53.5130   38.4060 N.am   96  CYS96      -0.1954
     95  CA       116.5550   54.3070   37.7930 C.3    96  CYS96       0.1843
     96  C        117.9190   53.9080   38.3440 C.2    96  CYS96       0.2625
     97  O        118.3820   54.4500   39.3490 O.2    96  CYS96      -0.2714
     98  CB       116.3130   55.7950   38.0150 C.3    96  CYS96       0.0997
     99  SG       114.7580   56.3690   37.3600 S.3    96  CYS96      -0.0797
    100  N        118.5690   52.9740   37.6600 N.am   97  ARG97      -0.1977
    101  CA       119.7470   52.2960   38.2000 C.3    97  ARG97       0.1597
    102  C        121.0470   53.1130   38.2410 C.2    97  ARG97       0.2287
    103  O        122.0180   52.6970   38.8770 O.2    97  ARG97      -0.2864
    104  CB       119.9680   50.9760   37.4600 C.3    97  ARG97       0.0334
    105  CG       118.8200   50.0020   37.6140 C.3    97  ARG97       0.0492
    106  CD       119.1970   48.6240   37.1290 C.3    97  ARG97       0.2205
    107  NE       118.0870   47.6910   37.2830 N.pl3  97  ARG97      -0.0865
    108  CZ       118.2140   46.3680   37.2920 C.cat  97  ARG97       0.5346
    109  NH1      119.4120   45.8080   37.1610 N.pl3  97  ARG97       0.1354
    110  NH2      117.1390   45.6010   37.4390 N.pl3  97  ARG97       0.1354
    111  N        121.4910   56.2000   39.4720 N.3    99  ARG99      -0.1231
    112  CA       121.3080   57.2920   40.4370 C.3    99  ARG99       0.1694
    113  C        120.8530   58.6190   39.8140 C.2    99  ARG99       0.2592
    114  O        120.2580   58.6410   38.7370 O.2    99  ARG99      -0.2718
    115  CB       122.5540   57.4900   41.3120 C.3    99  ARG99       0.0321
    116  CG       122.8180   56.3690   42.3130 C.3    99  ARG99       0.0489
    117  CD       123.8890   55.4000   41.8140 C.3    99  ARG99       0.2205
    118  NE       125.1070   56.0970   41.3900 N.pl3  99  ARG99      -0.0865
    119  CZ       126.0180   56.6130   42.2160 C.cat  99  ARG99       0.5346
    120  NH1      125.8730   56.5180   43.5350 N.pl3  99  ARG99       0.1354
    121  NH2      127.0810   57.2300   41.7170 N.pl3  99  ARG99       0.1354
    122  N        121.1280   59.7190   40.5090 N.am  100  SER100     -0.1952
    123  CA       120.6700   61.0380   40.0870 C.3   100  SER100      0.1924
    124  C        121.7940   61.8320   39.4490 C.2   100  SER100      0.2314
    125  O        122.9680   61.4770   39.5720 O.2   100  SER100     -0.2863
    126  CB       120.0960   61.8170   41.2760 C.3   100  SER100      0.2116
    127  OG       121.1230   62.3880   42.0740 O.3   100  SER100     -0.2180
    128  N        124.8590   62.8790   41.7620 N.3   103  GLU103     -0.1245
    129  CA       126.0020   61.9670   41.8290 C.3   103  GLU103      0.1567
    130  C        126.9480   62.2110   40.6620 C.2   103  GLU103      0.2260
    131  O        128.1650   62.1870   40.8360 O.2   103  GLU103     -0.2867
    132  CB       125.5390   60.5030   41.8300 C.3   103  GLU103      0.0388
    133  CG       124.9940   60.0080   43.1680 C.3   103  GLU103      0.1160
    134  CD       123.6680   60.6480   43.5490 C.2   103  GLU103      0.3649
    135  OE1      122.6890   60.4800   42.7950 O.co2 103  GLU103     -0.2457
    136  OE2      123.6050   61.3180   44.6030 O.co2 103  GLU103     -0.2457
    137  N        115.8040   69.7980   41.3100 N.3   141  LYS141     -0.1245
    138  CA       117.2490   69.8110   41.5500 C.3   141  LYS141      0.1561
    139  C        117.8920   68.5740   40.9240 C.2   141  LYS141      0.2260
    140  O        117.1920   67.6420   40.5220 O.2   141  LYS141     -0.2867
    141  CB       117.5700   69.9130   43.0530 C.3   141  LYS141      0.0271
    142  CG       117.0110   68.7940   43.9420 C.3   141  LYS141      0.0035
    143  CD       117.2790   69.0940   45.4180 C.3   141  LYS141      0.0206
    144  CE       116.8140   67.9720   46.3410 C.3   141  LYS141      0.1093
    145  NZ       115.3560   68.0370   46.6130 N.3   141  LYS141     -0.1314
    146  N        119.3540   66.1130   42.1700 N.3   143  GLY143     -0.1210
    147  CA       118.9860   64.8920   42.8920 C.3   143  GLY143      0.1956
    148  C        117.6350   64.3230   42.4870 C.2   143  GLY143      0.2611
    149  O        117.3440   63.1480   42.7370 O.2   143  GLY143     -0.2717
    150  N        116.8100   65.1630   41.8630 N.am  144  ASN144     -0.1974
    151  CA       115.4810   64.7730   41.3940 C.3   144  ASN144      0.1688
    152  C        115.4540   64.3880   39.9120 C.2   144  ASN144      0.2292
    153  O        114.4420   63.8940   39.4010 O.2   144  ASN144     -0.2864
    154  CB       114.4830   65.9000   41.6660 C.3   144  ASN144      0.1181
    155  CG       114.2470   66.1280   43.1480 C.2   144  ASN144      0.2629
    156  OD1      114.6090   65.3000   43.9850 O.2   144  ASN144     -0.2716
    157  ND2      113.6290   67.2530   43.4780 N.am  144  ASN144     -0.0877
    158  N        116.7050   61.8180   37.9040 N.3   146  PHE146     -0.1241
    159  CA       117.2390   60.4560   37.9760 C.3   146  PHE146      0.1605
    160  C        117.7530   59.9740   36.6240 C.2   146  PHE146      0.2264
    161  O        117.4670   60.5820   35.5890 O.2   146  PHE146     -0.2867
    162  CB       116.1620   59.4870   38.4730 C.3   146  PHE146      0.0534
    163  CG       115.7160   59.7270   39.8860 C.ar  146  PHE146     -0.0203
    164  CD1      116.1970   58.9380   40.9180 C.ar  146  PHE146     -0.0042
    165  CD2      114.7930   60.7240   40.1820 C.ar  146  PHE146     -0.0042
    166  CE1      115.7780   59.1470   42.2270 C.ar  146  PHE146     -0.0003
    167  CE2      114.3690   60.9430   41.4870 C.ar  146  PHE146     -0.0003
    168  CZ       114.8630   60.1530   42.5100 C.ar  146  PHE146     -0.0000
    169  N        110.3980   62.5900   42.4580 N.3   157  ASP157     -0.1239
    170  CA       110.2110   63.3060   43.7300 C.3   157  ASP157      0.1674
    171  C        109.2810   64.5160   43.5980 C.2   157  ASP157      0.2266
    172  O        109.7330   65.6570   43.4710 O.2   157  ASP157     -0.2867
    173  CB       111.5670   63.6900   44.3430 C.3   157  ASP157      0.1410
    174  CG       111.4320   64.3960   45.6730 C.2   157  ASP157      0.3668
    175  OD1      110.4540   64.1290   46.4030 O.co2 157  ASP157     -0.2456
    176  OD2      112.3120   65.2240   45.9890 O.co2 157  ASP157     -0.2456
@<TRIPOS>BOND
     1    85    83   ar
     2    83    84   ar
     3    83    82    1
     4    82    81    1
     5   161   160    2
     6    62    63    1
     7    89    88    2
     8   160   159    1
     9    81    78    1
    10    64    63    1
    11    64    65    2
    12    63    66    1
    13   106   107    1
    14   106   105    1
    15   109   108    1
    16   107   108    2
    17   108   110    1
    18    92    90    1
    19    99    98    1
    20   104   105    1
    21   104   101    1
    22   100   101    1
    23   100    96   am
    24    88    94   am
    25    88    87    1
    26    95    98    1
    27    95    96    1
    28    95    94    1
    29    78    79    1
    30    78    77    1
    31   158   159    1
    32   159   162    1
    33    86    79   am
    34    86    87    1
    35   101   102    1
    36   102   103    2
    37    66    68    1
    38    66    67    1
    39    96    97    2
    40    79    80    2
    41   162   163    1
    42    87    90    1
    43    90    91    1
    44   114   113    2
    45    77    71   am
    46   153   152    2
    47   124   125    2
    48   124   123    1
    49    91    93    1
    50   111   112    1
    51   113   112    1
    52   113   122   am
    53   163   165   ar
    54   163   164   ar
    55   152   151    1
    56    71    72    2
    57    71    70    1
    58   123   122    1
    59   123   126    1
    60   165   167   ar
    61   112   115    1
    62   140   139    2
    63   130   131    2
    64   130   129    1
    65   164   166   ar
    66   139   138    1
    67    70    73    1
    68    70    69    1
    69   126   127    1
    70   137   138    1
    71   115   116    1
    72   118   117    1
    73   118   119    2
    74   151   154    1
    75   151   150    1
    76   167   168   ar
    77   138   141    1
    78    76    74    1
    79   154   155    1
    80   121   119    1
    81    73    74    1
    82   128   129    1
    83   117   116    1
    84   129   132    1
    85   132   133    1
    86   150   148   am
    87    48    49    1
    88   146   147    1
    89   119   120    1
    90   166   168   ar
    91    11     9    1
    92   169   170    1
    93   148   149    2
    94   148   147    1
    95    74    75    1
    96    52    49    1
    97   135   134   ar
    98   141   142    1
    99    49    50    1
   100   155   157   am
   101   155   156    2
   102   133   134    1
   103     9     8    2
   104     9    10    1
   105   172   171    2
   106     8     7    1
   107   134   136   ar
   108   171   170    1
   109   170   173    1
   110    51    50    2
   111   142   143    1
   112   173   174    1
   113    18    17    1
   114    19    17    1
   115     7     6    1
   116    17    16    1
   117   143   144    1
   118     6     5    1
   119   174   176   ar
   120   174   175   ar
   121    16    13    1
   122    47    46    1
   123   144   145    1
   124     5     2    1
   125    61    60    1
   126    15    14    2
   127    13    14    1
   128    13    12    1
   129    53    54    1
   130     1     2    1
   131     4     3    2
   132    57    54    1
   133    57    58    1
   134    14    20   am
   135     2     3    1
   136    46    43    1
   137    59    60    1
   138    59    58    1
   139    54    55    1
   140    20    21    1
   141    44    43    1
   142    44    45    2
   143    43    42    1
   144    21    22    1
   145    56    55    2
   146    22    23    2
   147    22    24   am
   148    24    25    1
   149    27    26    2
   150    26    25    1
   151    26    33   am
   152    25    28    1
   153    34    33    1
   154    34    35    1
   155    41    38    1
   156    40    39    2
   157    35    36    2
   158    39    38    1
   159    28    29    1
   160    38    37    1
   161    29    30    1
   162    30    31    1
   163    31    32    1
