@<TRIPOS>MOLECULE
tmp/3dbaB00.pdb
 161 152 0 0 0
SMALL
GASTEIGER

@<TRIPOS>ATOM
      1  N         36.7760   20.9800   24.7050 N.3    41  ARG41      -0.1231
      2  CA        37.9010   20.8910   23.7650 C.3    41  ARG41       0.1694
      3  C         37.5000   20.3090   22.4220 C.2    41  ARG41       0.2592
      4  O         36.5430   19.5400   22.3340 O.2    41  ARG41      -0.2718
      5  CB        39.0160   20.0430   24.3660 C.3    41  ARG41       0.0321
      6  CG        39.4350   20.5850   25.7030 C.3    41  ARG41       0.0489
      7  CD        40.6810   19.9790   26.2340 C.3    41  ARG41       0.2205
      8  NE        40.9500   20.5160   27.5600 N.pl3  41  ARG41      -0.0865
      9  CZ        41.8760   20.0400   28.3720 C.cat  41  ARG41       0.5346
     10  NH1       42.6330   19.0260   27.9850 N.pl3  41  ARG41       0.1354
     11  NH2       42.0360   20.5780   29.5690 N.pl3  41  ARG41       0.1354
     12  N         38.2350   20.6990   21.3820 N.am   42  CYS42      -0.1956
     13  CA        38.0380   20.1910   20.0220 C.3    42  CYS42       0.1843
     14  C         39.3710   19.7010   19.4650 C.2    42  CYS42       0.2626
     15  O         40.4300   20.1990   19.8520 O.2    42  CYS42      -0.2714
     16  CB        37.4830   21.2900   19.1110 C.3    42  CYS42       0.0997
     17  SG        35.7430   21.7550   19.3800 S.3    42  CYS42      -0.0797
     18  N         39.3180   18.7370   18.5490 N.am   43  SER43      -0.1950
     19  CA        40.5320   18.1600   17.9840 C.3    43  SER43       0.1924
     20  C         40.3600   17.8100   16.5270 C.2    43  SER43       0.2314
     21  O         39.2400   17.6930   16.0450 O.2    43  SER43      -0.2863
     22  CB        40.9140   16.8940   18.7440 C.3    43  SER43       0.2116
     23  OG        39.8720   15.9300   18.7030 O.3    43  SER43      -0.2180
     24  N         42.0900   14.8030   13.9210 N.3    45  PHE45      -0.1241
     25  CA        42.9320   13.6430   13.7240 C.3    45  PHE45       0.1605
     26  C         43.1840   13.5120   12.2310 C.2    45  PHE45       0.2264
     27  O         42.2330   13.4450   11.4500 O.2    45  PHE45      -0.2867
     28  CB        42.2320   12.3830   14.2400 C.3    45  PHE45       0.0534
     29  CG        42.2840   12.2190   15.7340 C.ar   45  PHE45      -0.0203
     30  CD1       42.9520   11.1490   16.3030 C.ar   45  PHE45      -0.0042
     31  CD2       41.6580   13.1320   16.5690 C.ar   45  PHE45      -0.0042
     32  CE1       43.0030   10.9930   17.6710 C.ar   45  PHE45      -0.0003
     33  CE2       41.7050   12.9800   17.9430 C.ar   45  PHE45      -0.0003
     34  CZ        42.3810   11.9110   18.4940 C.ar   45  PHE45      -0.0000
     35  N         45.1310   19.1900   18.9230 N.3    61  LEU61      -0.1231
     36  CA        44.5420   18.7920   20.2030 C.3    61  LEU61       0.1693
     37  C         44.1950   20.0010   21.0690 C.2    61  LEU61       0.2592
     38  O         44.8020   21.0580   20.9430 O.2    61  LEU61      -0.2718
     39  CB        45.5240   17.9030   20.9730 C.3    61  LEU61       0.0284
     40  CG        45.6830   16.4640   20.4850 C.3    61  LEU61       0.0019
     41  CD1       46.9310   15.8160   21.0890 C.3    61  LEU61       0.0001
     42  CD2       44.4300   15.6500   20.8090 C.3    61  LEU61       0.0001
     43  N         43.2280   19.8270   21.9660 N.am   62  ASN62      -0.1974
     44  CA        42.9660   20.8120   23.0280 C.3    62  ASN62       0.1688
     45  C         42.6340   22.2050   22.5130 C.2    62  ASN62       0.2292
     46  O         43.1080   23.2160   23.0460 O.2    62  ASN62      -0.2864
     47  CB        44.1560   20.8600   24.0020 C.3    62  ASN62       0.1181
     48  CG        44.4160   19.5050   24.6570 C.2    62  ASN62       0.2629
     49  OD1       43.4820   18.8360   25.0830 O.2    62  ASN62      -0.2716
     50  ND2       45.6800   19.0980   24.7310 N.am   62  ASN62      -0.0877
     51  N         46.3380    5.5410   15.8470 N.3    82  PHE82      -0.1241
     52  CA        45.3810    4.4470   16.0720 C.3    82  PHE82       0.1605
     53  C         45.0690    3.6710   14.7890 C.2    82  PHE82       0.2264
     54  O         44.8000    4.2790   13.7500 O.2    82  PHE82      -0.2867
     55  CB        44.0580    4.9970   16.6190 C.3    82  PHE82       0.0534
     56  CG        44.1410    5.4820   18.0320 C.ar   82  PHE82      -0.0203
     57  CD1       44.1870    6.8410   18.3120 C.ar   82  PHE82      -0.0042
     58  CD2       44.1790    4.5760   19.0870 C.ar   82  PHE82      -0.0042
     59  CE1       44.2730    7.2910   19.6240 C.ar   82  PHE82      -0.0003
     60  CE2       44.2610    5.0130   20.4030 C.ar   82  PHE82      -0.0003
     61  CZ        44.3070    6.3730   20.6750 C.ar   82  PHE82      -0.0000
     62  N         39.7720    2.4710   19.0560 N.3    87  GLY87      -0.1210
     63  CA        39.3610    3.8390   19.3310 C.3    87  GLY87       0.1956
     64  C         38.1560    4.3060   18.5470 C.2    87  GLY87       0.2612
     65  O         37.9870    3.9520   17.3890 O.2    87  GLY87      -0.2717
     66  N         37.3250    5.1170   19.1980 N.am   88  ILE88      -0.1965
     67  CA        36.0980    5.6580   18.6070 C.3    88  ILE88       0.1727
     68  C         36.3370    6.6860   17.4840 C.2    88  ILE88       0.2616
     69  O         35.4570    6.8750   16.6470 O.2    88  ILE88      -0.2715
     70  CB        35.1420    6.2160   19.7180 C.3    88  ILE88       0.0290
     71  CG1       33.8000    6.6660   19.1500 C.3    88  ILE88       0.0022
     72  CG2       35.7470    7.3840   20.4530 C.3    88  ILE88       0.0023
     73  CD1       32.7250    6.7060   20.2190 C.3    88  ILE88       0.0001
     74  N         37.5110    7.3240   17.4420 N.am   89  ALA89      -0.1977
     75  CA        37.8910    8.1630   16.2850 C.3    89  ALA89       0.1597
     76  C         38.1430    7.3000   15.0480 C.2    89  ALA89       0.2287
     77  O         37.7900    7.6820   13.9270 O.2    89  ALA89      -0.2864
     78  CB        39.1180    8.9920   16.5880 C.3    89  ALA89       0.0319
     79  N         35.2640    3.0970   21.9800 N.3   110  PHE110     -0.1227
     80  CA        36.0280    3.9960   22.8470 C.3   110  PHE110      0.1736
     81  C         37.3660    3.3850   23.2840 C.2   110  PHE110      0.2596
     82  O         37.4050    2.2960   23.8700 O.2   110  PHE110     -0.2718
     83  CB        35.1860    4.3580   24.0810 C.3   110  PHE110      0.0547
     84  CG        35.7890    5.4390   24.9390 C.ar  110  PHE110     -0.0202
     85  CD1       36.2410    5.1560   26.2220 C.ar  110  PHE110     -0.0042
     86  CD2       35.9010    6.7500   24.4640 C.ar  110  PHE110     -0.0042
     87  CE1       36.8050    6.1580   27.0230 C.ar  110  PHE110     -0.0003
     88  CE2       36.4500    7.7490   25.2540 C.ar  110  PHE110     -0.0003
     89  CZ        36.9110    7.4500   26.5360 C.ar  110  PHE110     -0.0000
     90  N         38.4500    4.0800   22.9440 N.am  111  SER111     -0.1952
     91  CA        39.7780    3.8100   23.4860 C.3   111  SER111      0.1924
     92  C         40.0540    4.8500   24.5550 C.2   111  SER111      0.2314
     93  O         39.6140    5.9970   24.4370 O.2   111  SER111     -0.2863
     94  CB        40.8540    3.9070   22.4010 C.3   111  SER111      0.2116
     95  OG        42.1300    4.1780   22.9670 O.3   111  SER111     -0.2180
     96  N         44.5380    7.7640   25.5720 N.3   114  LEU114     -0.1231
     97  CA        44.9730    9.1570   25.6350 C.3   114  LEU114      0.1693
     98  C         44.4850    9.8540   26.9140 C.2   114  LEU114      0.2592
     99  O         45.1090   10.8100   27.3880 O.2   114  LEU114     -0.2718
    100  CB        44.4920    9.9100   24.3870 C.3   114  LEU114      0.0284
    101  CG        45.5220   10.7890   23.6780 C.3   114  LEU114      0.0019
    102  CD1       46.7390    9.9860   23.2330 C.3   114  LEU114      0.0001
    103  CD2       44.8620   11.4590   22.4860 C.3   114  LEU114      0.0001
    104  N         43.3640    9.3790   27.4580 N.am  115  ASP115     -0.1974
    105  CA        42.8770    9.8500   28.7540 C.3   115  ASP115      0.1709
    106  C         43.8560    9.4460   29.8380 C.2   115  ASP115      0.2293
    107  O         44.0750   10.1850   30.8000 O.2   115  ASP115     -0.2864
    108  CB        41.4910    9.2710   29.0710 C.3   115  ASP115      0.1436
    109  CG        40.3620   10.0750   28.4540 C.2   115  ASP115      0.3671
    110  OD1       40.6360   11.0110   27.6710 O.co2 115  ASP115     -0.2456
    111  OD2       39.1910    9.7800   28.7650 O.co2 115  ASP115     -0.2456
    112  N         47.4550   11.5440   28.9440 N.3   118  THR118     -0.1218
    113  CA        47.4460   12.9960   29.1150 C.3   118  THR118      0.1862
    114  C         46.9270   13.4430   30.4800 C.2   118  THR118      0.2287
    115  O         47.3590   14.4770   30.9990 O.2   118  THR118     -0.2866
    116  CB        46.5870   13.6870   28.0450 C.3   118  THR118      0.1770
    117  OG1       45.2350   13.2130   28.1220 O.3   118  THR118     -0.2211
    118  CG2       47.1460   13.4310   26.6560 C.3   118  THR118      0.0375
    119  N         43.4330   13.6460   30.8580 N.3   120  TYR120     -0.1241
    120  CA        42.0910   14.1610   30.5730 C.3   120  TYR120      0.1605
    121  C         41.0670   13.0580   30.8100 C.2   120  TYR120      0.2264
    122  O         41.4230   11.8890   30.8190 O.2   120  TYR120     -0.2867
    123  CB        42.0190   14.6710   29.1210 C.3   120  TYR120      0.0534
    124  CG        40.8450   15.5820   28.8080 C.ar  120  TYR120     -0.0201
    125  CD1       40.7670   16.8620   29.3430 C.ar  120  TYR120     -0.0009
    126  CD2       39.8310   15.1750   27.9570 C.ar  120  TYR120     -0.0009
    127  CE1       39.6910   17.7040   29.0500 C.ar  120  TYR120      0.0417
    128  CE2       38.7600   16.0010   27.6670 C.ar  120  TYR120      0.0417
    129  CZ        38.6970   17.2590   28.2140 C.ar  120  TYR120      0.1957
    130  OH        37.6300   18.0690   27.9310 O.3   120  TYR120     -0.2866
    131  N         37.5320   11.9160   28.9920 N.3   122  THR122     -0.1218
    132  CA        36.5660   12.0690   27.9290 C.3   122  THR122      0.1862
    133  C         35.2520   11.4660   28.3920 C.2   122  THR122      0.2287
    134  O         35.2290   10.3330   28.8480 O.2   122  THR122     -0.2866
    135  CB        37.0340   11.3290   26.6910 C.3   122  THR122      0.1770
    136  OG1       38.3220   11.8290   26.3080 O.3   122  THR122     -0.2211
    137  CG2       36.0480   11.5150   25.5680 C.3   122  THR122      0.0375
    138  N         31.2560   13.3340   23.3390 N.3   125  MET125     -0.1245
    139  CA        32.0070   13.4470   22.1080 C.3   125  MET125      0.1570
    140  C         31.0620   13.4360   20.9160 C.2   125  MET125      0.2261
    141  O         30.1940   12.5690   20.7990 O.2   125  MET125     -0.2867
    142  CB        33.0070   12.2900   22.0150 C.3   125  MET125      0.0387
    143  CG        33.7620   12.1730   20.7070 C.3   125  MET125      0.0595
    144  SD        34.7980   10.6910   20.6820 S.3   125  MET125     -0.1393
    145  CE        36.0920   11.1240   21.8390 C.3   125  MET125      0.0692
    146  N         36.6170   16.2360   15.9750 N.3   141  MET141     -0.1245
    147  CA        35.6950   15.9760   17.0790 C.3   141  MET141      0.1570
    148  C         35.6550   17.0480   18.1800 C.2   141  MET141      0.2261
    149  O         36.6340   17.7530   18.4340 O.2   141  MET141     -0.2867
    150  CB        35.9370   14.5800   17.6700 C.3   141  MET141      0.0387
    151  CG        37.3610   14.2790   18.0780 C.3   141  MET141      0.0595
    152  SD        37.6020   12.5360   18.5150 S.3   141  MET141     -0.1393
    153  CE        38.6580   12.0510   17.1700 C.3   141  MET141      0.0692
    154  N         34.6830   17.4860   22.2790 N.3   143  LEU143     -0.1245
    155  CA        34.6070   16.7080   23.5260 C.3   143  LEU143      0.1561
    156  C         33.9980   17.4760   24.7070 C.2   143  LEU143      0.2260
    157  O         34.2380   18.6730   24.8860 O.2   143  LEU143     -0.2867
    158  CB        35.9990   16.2560   23.9530 C.3   143  LEU143      0.0270
    159  CG        36.8670   15.4780   22.9730 C.3   143  LEU143      0.0019
    160  CD1       38.0280   14.8700   23.7460 C.3   143  LEU143      0.0001
    161  CD2       36.0710   14.4020   22.2520 C.3   143  LEU143      0.0001
@<TRIPOS>BOND
     1    27    26    2
     2    26    25    1
     3    25    24    1
     4    25    28    1
     5    54    53    2
     6    77    76    2
     7    28    29    1
     8    53    52    1
     9    76    75    1
    10    29    30   ar
    11    29    31   ar
    12    51    52    1
    13   146   147    1
    14    21    20    2
    15    52    55    1
    16    75    78    1
    17    75    74    1
    18    30    32   ar
    19    20    19    1
    20    31    33   ar
    21    55    56    1
    22    69    68    2
    23   147   150    1
    24   147   148    1
    25   153   152    1
    26    65    64    2
    27    74    68   am
    28    68    67    1
    29   150   151    1
    30    32    34   ar
    31    33    34   ar
    32    19    18    1
    33    19    22    1
    34    56    57   ar
    35    56    58   ar
    36   151   152    1
    37   148   149    2
    38    57    59   ar
    39    64    66   am
    40    64    63    1
    41    18    14   am
    42    67    66    1
    43    67    70    1
    44    23    22    1
    45    35    36    1
    46    62    63    1
    47    58    60   ar
    48    16    17    1
    49    16    13    1
    50    71    70    1
    51    71    73    1
    52    14    15    2
    53    14    13    1
    54    59    61   ar
    55    70    72    1
    56    13    12    1
    57    36    39    1
    58    36    37    1
    59    60    61   ar
    60    40    42    1
    61    40    39    1
    62    40    41    1
    63   144   143    1
    64   144   145    1
    65   143   142    1
    66   141   140    2
    67   140   139    1
    68    38    37    2
    69    37    43   am
    70    12     3   am
    71    43    44    1
    72    79    80    1
    73   142   139    1
    74   139   138    1
    75   161   159    1
    76   154   155    1
    77     4     3    2
    78    94    95    1
    79    94    91    1
    80     3     2    1
    81   103   101    1
    82    45    44    1
    83    45    46    2
    84    80    81    1
    85    80    83    1
    86    90    81   am
    87    90    91    1
    88   159   160    1
    89   159   158    1
    90    44    47    1
    91   102   101    1
    92    81    82    2
    93    91    92    1
    94   155   158    1
    95   155   156    1
    96   101   100    1
    97     2     5    1
    98     2     1    1
    99    47    48    1
   100    83    84    1
   101     5     6    1
   102   100    97    1
   103    93    92    2
   104    86    84   ar
   105    86    88   ar
   106    48    50   am
   107    48    49    2
   108   156   157    2
   109    84    85   ar
   110    88    89   ar
   111   137   135    1
   112    96    97    1
   113    97    98    1
   114     6     7    1
   115    85    87   ar
   116     7     8    1
   117   136   135    1
   118    89    87   ar
   119   118   116    1
   120   135   132    1
   121    98    99    2
   122    98   104   am
   123   104   105    1
   124     8     9    2
   125   128   126   ar
   126   128   129   ar
   127   110   109   ar
   128   132   133    1
   129   132   131    1
   130   130   129    1
   131   126   124   ar
   132    10     9    1
   133   116   117    1
   134   116   113    1
   135   129   127   ar
   136     9    11    1
   137   133   134    2
   138   109   111   ar
   139   109   108    1
   140   105   108    1
   141   105   106    1
   142   124   123    1
   143   124   125   ar
   144   112   113    1
   145   127   125   ar
   146   113   114    1
   147   123   120    1
   148   106   107    2
   149   114   115    2
   150   120   121    1
   151   120   119    1
   152   121   122    2
