@<TRIPOS>MOLECULE
tmp/3dbcA00.pdb
 198 185 0 0 0
SMALL
GASTEIGER

@<TRIPOS>ATOM
      1  N        117.7290   45.0440   47.4420 N.3    20  ARG20      -0.1245
      2  CA       118.8320   45.8980   47.8920 C.3    20  ARG20       0.1563
      3  C        118.4140   47.3210   48.2490 C.2    20  ARG20       0.2260
      4  O        117.6380   47.9600   47.5360 O.2    20  ARG20      -0.2867
      5  CB       120.0040   45.8930   46.8950 C.3    20  ARG20       0.0307
      6  CG       119.7080   46.4710   45.5180 C.3    20  ARG20       0.0489
      7  CD       120.9490   46.4560   44.6250 C.3    20  ARG20       0.2205
      8  NE       120.7320   47.2250   43.4010 N.pl3  20  ARG20      -0.0865
      9  CZ       121.1750   48.4610   43.1990 C.cat  20  ARG20       0.5346
     10  NH1      121.8850   49.0800   44.1310 N.pl3  20  ARG20       0.1354
     11  NH2      120.9140   49.0810   42.0580 N.pl3  20  ARG20       0.1354
     12  N        118.5650   51.2110   48.5400 N.3    22  LEU22      -0.1231
     13  CA       118.9590   52.1600   47.4990 C.3    22  LEU22       0.1693
     14  C        119.2680   53.5460   48.0430 C.2    22  LEU22       0.2593
     15  O        120.0650   54.2780   47.4540 O.2    22  LEU22      -0.2718
     16  CB       117.8980   52.2500   46.4010 C.3    22  LEU22       0.0284
     17  CG       117.5270   50.9700   45.6440 C.3    22  LEU22       0.0019
     18  CD1      116.3670   51.2470   44.7030 C.3    22  LEU22       0.0001
     19  CD2      118.7120   50.3800   44.8820 C.3    22  LEU22       0.0001
     20  N        118.6420   53.9050   49.1620 N.am   23  GLY23      -0.1942
     21  CA       118.8890   55.2030   49.7880 C.3    23  GLY23       0.2014
     22  C        117.8180   55.6180   50.7740 C.2    23  GLY23       0.2639
     23  O        116.9170   54.8380   51.0840 O.2    23  GLY23      -0.2714
     24  N        117.9300   56.8460   51.2770 N.am   24  LYS24      -0.1963
     25  CA       116.9480   57.3960   52.2100 C.3    24  LYS24       0.1728
     26  C        116.7260   58.8960   52.0170 C.2    24  LYS24       0.2616
     27  O        117.6240   59.7070   52.2520 O.2    24  LYS24      -0.2715
     28  CB       117.3030   57.0620   53.6710 C.3    24  LYS24       0.0311
     29  CG       118.7430   57.3510   54.0920 C.3    24  LYS24       0.0038
     30  CD       118.9290   57.1110   55.5910 C.3    24  LYS24       0.0206
     31  CE       120.3070   57.5660   56.0720 C.3    24  LYS24       0.1093
     32  NZ       120.4040   57.6260   57.5610 N.3    24  LYS24      -0.1314
     33  N        115.5210   59.2490   51.5750 N.am   25  GLY25      -0.1955
     34  CA       115.1250   60.6440   51.3930 C.3    25  GLY25       0.1869
     35  C        114.2350   61.1140   52.5260 C.2    25  GLY25       0.2309
     36  O        113.0660   60.7280   52.6080 O.2    25  GLY25      -0.2863
     37  N        111.9910   58.6010   54.3580 N.3    28  ALA28      -0.1245
     38  CA       111.5730   57.5540   53.4320 C.3    28  ALA28       0.1562
     39  C        112.7580   56.7600   52.8900 C.2    28  ALA28       0.2260
     40  O        113.5770   57.2890   52.1380 O.2    28  ALA28      -0.2867
     41  CB       110.7590   58.1500   52.2900 C.3    28  ALA28       0.0290
     42  N        114.2320   53.5220   50.6000 N.3    30  CYS30      -0.1235
     43  CA       113.8810   53.0220   49.2730 C.3    30  CYS30       0.1677
     44  C        114.6650   51.7650   48.9160 C.2    30  CYS30       0.2270
     45  O        115.8930   51.7370   49.0170 O.2    30  CYS30      -0.2867
     46  CB       114.1210   54.1050   48.2230 C.3    30  CYS30       0.0956
     47  SG       113.8040   53.6110   46.5160 S.3    30  CYS30      -0.0801
     48  N        111.5250   50.3930   42.0610 N.3    43  ALA43      -0.1245
     49  CA       112.0110   51.1180   43.2240 C.3    43  ALA43       0.1562
     50  C        110.8520   51.4200   44.1810 C.2    43  ALA43       0.2260
     51  O        109.9420   52.1940   43.8510 O.2    43  ALA43      -0.2867
     52  CB       112.6980   52.3960   42.7860 C.3    43  ALA43       0.0290
     53  N        109.4160   53.0670   47.4360 N.3    45  LYS45      -0.1245
     54  CA       109.4980   54.0190   48.5420 C.3    45  LYS45       0.1561
     55  C        108.6930   53.4980   49.7160 C.2    45  LYS45       0.2260
     56  O        107.4910   53.2830   49.6000 O.2    45  LYS45      -0.2867
     57  CB       108.9970   55.4120   48.1370 C.3    45  LYS45       0.0271
     58  CG       110.0900   56.4700   48.0910 C.3    45  LYS45       0.0035
     59  CD       109.5620   57.8500   47.7030 C.3    45  LYS45       0.0206
     60  CE       110.7260   58.8140   47.4460 C.3    45  LYS45       0.1093
     61  NZ       110.3900   59.9250   46.5030 N.3    45  LYS45      -0.1314
     62  N        101.5440   62.1780   40.9930 N.3    68  HIS68      -0.1241
     63  CA       102.4570   61.2650   40.3100 C.3    68  HIS68       0.1621
     64  C        101.6920   60.1630   39.5770 C.2    68  HIS68       0.2264
     65  O        102.0400   59.8090   38.4460 O.2    68  HIS68      -0.2867
     66  CB       103.4520   60.6550   41.3040 C.3    68  HIS68       0.0745
     67  CG       104.6950   60.0990   40.6710 C.ar   68  HIS68       0.0817
     68  ND1      105.9390   60.2210   41.2520 N.ar   68  HIS68      -0.2268
     69  CD2      104.8870   59.4150   39.5170 C.ar   68  HIS68       0.1154
     70  CE1      106.8410   59.6380   40.4830 C.ar   68  HIS68       0.1986
     71  NE2      106.2280   59.1390   39.4260 N.ar   68  HIS68      -0.2212
     72  N        109.4440   59.8600   36.2900 N.3    77  VAL77      -0.1245
     73  CA       109.4870   58.5280   36.8860 C.3    77  VAL77       0.1561
     74  C        108.1330   57.8380   36.7130 C.2    77  VAL77       0.2260
     75  O        107.0930   58.3870   37.0890 O.2    77  VAL77      -0.2867
     76  CB       109.8600   58.5760   38.3870 C.3    77  VAL77       0.0252
     77  CG1      109.7890   57.1810   39.0070 C.3    77  VAL77       0.0019
     78  CG2      111.2500   59.1620   38.5740 C.3    77  VAL77       0.0019
     79  N        107.6040   52.5180   42.0610 N.3    93  LEU93      -0.1231
     80  CA       108.0600   53.4460   41.0270 C.3    93  LEU93       0.1693
     81  C        109.0160   52.7940   40.0250 C.2    93  LEU93       0.2592
     82  O        109.4220   51.6400   40.1910 O.2    93  LEU93      -0.2718
     83  CB       108.7460   54.6430   41.6810 C.3    93  LEU93       0.0284
     84  CG       107.9580   55.4540   42.7090 C.3    93  LEU93       0.0019
     85  CD1      108.8210   55.7300   43.9300 C.3    93  LEU93       0.0001
     86  CD2      107.4140   56.7450   42.1090 C.3    93  LEU93       0.0001
     87  N        109.3710   53.5550   38.9900 N.am   94  GLU94      -0.1966
     88  CA       110.2730   53.1080   37.9290 C.3    94  GLU94       0.1733
     89  C        111.7010   53.0560   38.4440 C.2    94  GLU94       0.2616
     90  O        112.1360   53.9430   39.1720 O.2    94  GLU94      -0.2715
     91  CB       110.1870   54.0660   36.7420 C.3    94  GLU94       0.0429
     92  CG       110.7390   53.5230   35.4310 C.3    94  GLU94       0.1163
     93  CD       110.9210   54.6010   34.3700 C.2    94  GLU94       0.3649
     94  OE1      110.2590   55.6630   34.4690 O.co2  94  GLU94      -0.2457
     95  OE2      111.7310   54.3800   33.4380 O.co2  94  GLU94      -0.2457
     96  N        112.4330   52.0190   38.0580 N.am   95  ILE95      -0.1963
     97  CA       113.7920   51.8210   38.5570 C.3    95  ILE95       0.1727
     98  C        114.8440   52.6040   37.7500 C.2    95  ILE95       0.2616
     99  O        114.9100   52.5050   36.5200 O.2    95  ILE95      -0.2715
    100  CB       114.1350   50.2990   38.6740 C.3    95  ILE95       0.0290
    101  CG1      115.3690   50.0720   39.5510 C.3    95  ILE95       0.0022
    102  CG2      114.2630   49.6330   37.2930 C.3    95  ILE95       0.0023
    103  CD1      115.0860   50.1450   41.0320 C.3    95  ILE95       0.0001
    104  N        115.6460   53.3960   38.4600 N.am   96  CYS96      -0.1954
    105  CA       116.7170   54.1910   37.8510 C.3    96  CYS96       0.1843
    106  C        118.0640   53.8350   38.4780 C.2    96  CYS96       0.2625
    107  O        118.4930   54.4450   39.4610 O.2    96  CYS96      -0.2714
    108  CB       116.4290   55.6840   38.0060 C.3    96  CYS96       0.0997
    109  SG       114.7810   56.1670   37.4600 S.3    96  CYS96      -0.0797
    110  N        118.7310   52.8460   37.8900 N.am   97  ARG97      -0.1977
    111  CA       119.9280   52.2480   38.4850 C.3    97  ARG97       0.1597
    112  C        121.2190   53.0270   38.2020 C.2    97  ARG97       0.2287
    113  O        122.3230   52.5020   38.3870 O.2    97  ARG97      -0.2864
    114  CB       120.0760   50.7840   38.0390 C.3    97  ARG97       0.0334
    115  CG       118.7760   49.9910   38.0210 C.3    97  ARG97       0.0492
    116  CD       119.0020   48.5390   37.6360 C.3    97  ARG97       0.2205
    117  NE       117.8770   48.0210   36.8590 N.pl3  97  ARG97      -0.0865
    118  CZ       117.5420   46.7350   36.7680 C.cat  97  ARG97       0.5346
    119  NH1      118.2400   45.8100   37.4210 N.pl3  97  ARG97       0.1354
    120  NH2      116.4980   46.3740   36.0280 N.pl3  97  ARG97       0.1354
    121  N        121.4520   56.3480   39.4540 N.3    99  ARG99      -0.1231
    122  CA       121.2960   57.4720   40.3870 C.3    99  ARG99       0.1694
    123  C        120.9010   58.7850   39.7080 C.2    99  ARG99       0.2592
    124  O        120.3860   58.7800   38.5890 O.2    99  ARG99      -0.2718
    125  CB       122.5320   57.6520   41.2790 C.3    99  ARG99       0.0321
    126  CG       122.6740   56.5990   42.3740 C.3    99  ARG99       0.0489
    127  CD       123.7440   55.5670   42.0350 C.3    99  ARG99       0.2205
    128  NE       125.0630   56.1890   41.9000 N.pl3  99  ARG99      -0.0865
    129  CZ       125.8580   56.5130   42.9180 C.cat  99  ARG99       0.5346
    130  NH1      125.4850   56.2720   44.1730 N.pl3  99  ARG99       0.1354
    131  NH2      127.0330   57.0790   42.6780 N.pl3  99  ARG99       0.1354
    132  N        121.1360   59.9030   40.3900 N.am  100  SER100     -0.1952
    133  CA       120.6560   61.1960   39.9180 C.3   100  SER100      0.1924
    134  C        121.7660   62.0610   39.3430 C.2   100  SER100      0.2314
    135  O        122.9440   61.8560   39.6320 O.2   100  SER100     -0.2863
    136  CB       119.9450   61.9450   41.0420 C.3   100  SER100      0.2116
    137  OG       120.8770   62.5690   41.9080 O.3   100  SER100     -0.2180
    138  N        122.7950   64.6530   40.1380 N.3   102  LEU102     -0.1231
    139  CA       123.6200   65.1790   41.2180 C.3   102  LEU102      0.1693
    140  C        124.8770   64.3360   41.3630 C.2   102  LEU102      0.2591
    141  O        125.9880   64.8660   41.3340 O.2   102  LEU102     -0.2718
    142  CB       122.8360   65.2030   42.5340 C.3   102  LEU102      0.0284
    143  CG       123.6030   65.4500   43.8350 C.3   102  LEU102      0.0019
    144  CD1      124.0700   66.8900   43.9320 C.3   102  LEU102      0.0001
    145  CD2      122.7410   65.0810   45.0240 C.3   102  LEU102      0.0001
    146  N        124.6930   63.0240   41.5070 N.am  103  GLU103     -0.1979
    147  CA       125.8160   62.0930   41.5740 C.3   103  GLU103      0.1602
    148  C        126.7550   62.3320   40.4050 C.2   103  GLU103      0.2287
    149  O        127.9620   62.4300   40.5960 O.2   103  GLU103     -0.2864
    150  CB       125.3450   60.6310   41.6050 C.3   103  GLU103      0.0415
    151  CG       124.7910   60.1870   42.9540 C.3   103  GLU103      0.1163
    152  CD       123.5170   60.9230   43.3320 C.2   103  GLU103      0.3649
    153  OE1      122.4760   60.6620   42.6980 O.co2 103  GLU103     -0.2457
    154  OE2      123.5580   61.7650   44.2550 O.co2 103  GLU103     -0.2457
    155  N        115.7250   69.7340   41.5960 N.3   141  LYS141     -0.1245
    156  CA       117.1580   69.7150   41.8660 C.3   141  LYS141      0.1561
    157  C        117.7950   68.5080   41.1760 C.2   141  LYS141      0.2260
    158  O        117.1110   67.5290   40.8720 O.2   141  LYS141     -0.2867
    159  CB       117.4370   69.7370   43.3800 C.3   141  LYS141      0.0271
    160  CG       116.7610   68.6380   44.2040 C.3   141  LYS141      0.0035
    161  CD       116.4990   69.1100   45.6400 C.3   141  LYS141      0.0206
    162  CE       116.1890   67.9500   46.6000 C.3   141  LYS141      0.1093
    163  NZ       114.8470   67.3120   46.3940 N.3   141  LYS141     -0.1314
    164  N        119.1740   66.0840   42.0940 N.3   143  GLY143     -0.1210
    165  CA       118.7600   64.8460   42.7470 C.3   143  GLY143      0.1956
    166  C        117.4290   64.3050   42.2460 C.2   143  GLY143      0.2611
    167  O        117.1820   63.0960   42.3050 O.2   143  GLY143     -0.2717
    168  N        116.5700   65.2040   41.7610 N.am  144  ASN144     -0.1974
    169  CA       115.2700   64.8380   41.1920 C.3   144  ASN144      0.1688
    170  C        115.3680   64.3960   39.7360 C.2   144  ASN144      0.2292
    171  O        114.3850   63.9370   39.1520 O.2   144  ASN144     -0.2864
    172  CB       114.2970   66.0110   41.2900 C.3   144  ASN144      0.1181
    173  CG       114.0200   66.4330   42.7160 C.2   144  ASN144      0.2629
    174  OD1      113.9360   65.6100   43.6230 O.2   144  ASN144     -0.2716
    175  ND2      113.8550   67.7250   42.9160 N.am  144  ASN144     -0.0877
    176  N        116.7540   61.7410   37.8520 N.3   146  PHE146     -0.1241
    177  CA       117.2800   60.3740   37.8990 C.3   146  PHE146      0.1605
    178  C        117.7300   59.8670   36.5290 C.2   146  PHE146      0.2264
    179  O        117.3140   60.3920   35.4940 O.2   146  PHE146     -0.2867
    180  CB       116.2230   59.4170   38.4580 C.3   146  PHE146      0.0534
    181  CG       115.7710   59.7430   39.8540 C.ar  146  PHE146     -0.0203
    182  CD1      116.3020   59.0630   40.9420 C.ar  146  PHE146     -0.0042
    183  CD2      114.7980   60.7120   40.0790 C.ar  146  PHE146     -0.0042
    184  CE1      115.8830   59.3530   42.2340 C.ar  146  PHE146     -0.0003
    185  CE2      114.3710   61.0100   41.3670 C.ar  146  PHE146     -0.0003
    186  CZ       114.9120   60.3290   42.4460 C.ar  146  PHE146     -0.0000
    187  N        111.6650   62.9360   39.1130 N.3   156  GLY156     -0.1210
    188  CA       111.0040   62.2900   40.2460 C.3   156  GLY156      0.1956
    189  C        110.7930   63.2160   41.4310 C.2   156  GLY156      0.2611
    190  O        110.9720   64.4360   41.3170 O.2   156  GLY156     -0.2717
    191  N        110.4100   62.6220   42.5660 N.am  157  ASP157     -0.1973
    192  CA       110.1960   63.3260   43.8410 C.3   157  ASP157      0.1709
    193  C        109.2360   64.5070   43.7030 C.2   157  ASP157      0.2293
    194  O        109.6490   65.6670   43.7200 O.2   157  ASP157     -0.2864
    195  CB       111.5340   63.7510   44.4720 C.3   157  ASP157      0.1436
    196  CG       111.3960   64.2060   45.9280 C.2   157  ASP157      0.3671
    197  OD1      110.2620   64.2690   46.4580 O.co2 157  ASP157     -0.2456
    198  OD2      112.4410   64.5040   46.5510 O.co2 157  ASP157     -0.2456
@<TRIPOS>BOND
     1    95    93   ar
     2    93    94   ar
     3    93    92    1
     4    92    91    1
     5   179   178    2
     6   120   118    1
     7    72    73    1
     8    99    98    2
     9   178   177    1
    10    74    73    1
    11    74    75    2
    12    91    88    1
    13   118   117    2
    14   118   119    1
    15   117   116    1
    16    73    76    1
    17   102   100    1
    18   109   108    1
    19   116   115    1
    20    98   104   am
    21    98    97    1
    22   105   108    1
    23   105   104    1
    24   105   106    1
    25   176   177    1
    26   110   106   am
    27   110   111    1
    28   177   180    1
    29    88    89    1
    30    88    87    1
    31   115   114    1
    32   114   111    1
    33    96    89   am
    34    96    97    1
    35   112   113    2
    36   112   111    1
    37    76    78    1
    38    76    77    1
    39    89    90    2
    40    65    64    2
    41   180   181    1
    42   106   107    2
    43    97   100    1
    44   124   123    2
    45   100   101    1
    46    87    81   am
    47   187   188    1
    48   171   170    2
    49   134   135    2
    50   134   133    1
    51    71    69   ar
    52    71    70   ar
    53   121   122    1
    54    69    67   ar
    55   101   103    1
    56    64    63    1
    57   123   122    1
    58   123   132   am
    59   170   169    1
    60   181   183   ar
    61   181   182   ar
    62   133   132    1
    63   133   136    1
    64    81    82    2
    65    81    80    1
    66   183   185   ar
    67   138   139    1
    68   188   189    1
    69    63    62    1
    70    63    66    1
    71   122   125    1
    72   148   149    2
    73   148   147    1
    74    70    68   ar
    75    67    68   ar
    76    67    66    1
    77   158   157    2
    78   182   184   ar
    79    80    83    1
    80    80    79    1
    81   136   137    1
    82   157   156    1
    83   169   172    1
    84   169   168    1
    85   139   140    1
    86   139   142    1
    87   125   126    1
    88   172   173    1
    89   190   189    2
    90   141   140    2
    91   140   146   am
    92   185   186   ar
    93   189   191   am
    94   146   147    1
    95   147   150    1
    96   155   156    1
    97   150   151    1
    98    83    84    1
    99   168   166   am
   100   156   159    1
   101   128   127    1
   102   128   129    2
   103   127   126    1
   104    11     9    1
   105    48    49    1
   106   164   165    1
   107    86    84    1
   108   184   186   ar
   109   166   167    2
   110   166   165    1
   111   142   143    1
   112   191   192    1
   113   131   129    1
   114   153   152   ar
   115    84    85    1
   116   173   175   am
   117   173   174    2
   118    52    49    1
   119   129   130    1
   120   151   152    1
   121     9     8    2
   122     9    10    1
   123    49    50    1
   124   152   154   ar
   125   159   160    1
   126     8     7    1
   127   193   194    2
   128   193   192    1
   129   143   144    1
   130   143   145    1
   131   192   195    1
   132    51    50    2
   133   160   161    1
   134   195   196    1
   135     7     6    1
   136    18    17    1
   137    19    17    1
   138     6     5    1
   139   161   162    1
   140    17    16    1
   141   196   197   ar
   142   196   198   ar
   143   163   162    1
   144    16    13    1
   145    61    60    1
   146    47    46    1
   147     5     2    1
   148    53    54    1
   149     1     2    1
   150    60    59    1
   151    15    14    2
   152    13    14    1
   153    13    12    1
   154     4     3    2
   155    59    58    1
   156     2     3    1
   157    14    20   am
   158    58    57    1
   159    57    54    1
   160    46    43    1
   161    54    55    1
   162    44    45    2
   163    44    43    1
   164    20    21    1
   165    43    42    1
   166    56    55    2
   167    21    22    1
   168    22    23    2
   169    22    24   am
   170    24    25    1
   171    34    33    1
   172    34    35    1
   173    33    26   am
   174    26    25    1
   175    26    27    2
   176    40    39    2
   177    25    28    1
   178    41    38    1
   179    35    36    2
   180    39    38    1
   181    38    37    1
   182    28    29    1
   183    29    30    1
   184    30    31    1
   185    31    32    1
