@<TRIPOS>MOLECULE
tmp/3dbdA00.pdb
 189 177 0 0 0
SMALL
GASTEIGER

@<TRIPOS>ATOM
      1  N         44.8620   17.3050   47.6310 N.3    20  ARG20      -0.1245
      2  CA        45.7010   16.2160   48.1380 C.3    20  ARG20       0.1563
      3  C         47.1030   16.6690   48.5490 C.2    20  ARG20       0.2260
      4  O         47.6780   17.5820   47.9500 O.2    20  ARG20      -0.2867
      5  CB        45.7680   15.0520   47.1340 C.3    20  ARG20       0.0307
      6  CG        46.5250   15.3380   45.8390 C.3    20  ARG20       0.0489
      7  CD        46.4740   14.1440   44.8930 C.3    20  ARG20       0.2205
      8  NE        47.3370   14.3270   43.7250 N.pl3  20  ARG20      -0.0865
      9  CZ        48.5020   13.7100   43.5380 C.cat  20  ARG20       0.5346
     10  NH1       48.9650   12.8510   44.4380 N.pl3  20  ARG20       0.1354
     11  NH2       49.2070   13.9510   42.4410 N.pl3  20  ARG20       0.1354
     12  N         51.1080   16.4560   48.9170 N.3    22  LEU22      -0.1231
     13  CA        52.1220   16.0840   47.9270 C.3    22  LEU22       0.1693
     14  C         53.4860   15.7510   48.5310 C.2    22  LEU22       0.2593
     15  O         54.2080   14.9020   48.0050 O.2    22  LEU22      -0.2718
     16  CB        52.2660   17.1760   46.8590 C.3    22  LEU22       0.0284
     17  CG        51.0720   17.4440   45.9340 C.3    22  LEU22       0.0019
     18  CD1       51.3160   18.6980   45.1120 C.3    22  LEU22       0.0001
     19  CD2       50.7730   16.2550   45.0220 C.3    22  LEU22       0.0001
     20  N         53.8320   16.4230   49.6260 N.am   23  GLY23      -0.1942
     21  CA        55.1120   16.2000   50.2940 C.3    23  GLY23       0.2014
     22  C         55.5440   17.3500   51.1840 C.2    23  GLY23       0.2639
     23  O         54.8000   18.3140   51.3770 O.2    23  GLY23      -0.2714
     24  N         56.7540   17.2390   51.7260 N.am   24  LYS24      -0.1963
     25  CA        57.3060   18.2560   52.6200 C.3    24  LYS24       0.1728
     26  C         58.7620   18.5820   52.2860 C.2    24  LYS24       0.2616
     27  O         59.5200   17.7110   51.8500 O.2    24  LYS24      -0.2715
     28  CB        57.1650   17.8260   54.0870 C.3    24  LYS24       0.0311
     29  CG        57.7500   16.4550   54.4150 C.3    24  LYS24       0.0038
     30  CD        57.3400   15.9930   55.8050 C.3    24  LYS24       0.0206
     31  CE        57.8470   14.5880   56.0850 C.3    24  LYS24       0.1093
     32  NZ        57.3480   14.0680   57.3910 N.3    24  LYS24      -0.1314
     33  N         59.1380   19.8420   52.4900 N.am   25  GLY25      -0.1955
     34  CA        60.4970   20.3040   52.2230 C.3    25  GLY25       0.1869
     35  C         61.0640   21.1150   53.3710 C.2    25  GLY25       0.2309
     36  O         61.0030   22.3470   53.3590 O.2    25  GLY25      -0.2863
     37  N         58.5730   23.6730   54.7970 N.3    28  ALA28      -0.1245
     38  CA        57.4590   23.8810   53.8740 C.3    28  ALA28       0.1562
     39  C         56.6630   22.6010   53.6260 C.2    28  ALA28       0.2260
     40  O         57.2140   21.4990   53.6650 O.2    28  ALA28      -0.2867
     41  CB        57.9670   24.4530   52.5570 C.3    28  ALA28       0.0290
     42  N         53.8250   20.9730   50.8050 N.3    30  CYS30      -0.1235
     43  CA        53.2490   21.1350   49.4730 C.3    30  CYS30       0.1677
     44  C         51.8930   20.4510   49.3320 C.2    30  CYS30       0.2270
     45  O         51.7230   19.2940   49.7260 O.2    30  CYS30      -0.2867
     46  CB        54.2120   20.6100   48.4090 C.3    30  CYS30       0.0956
     47  SG        53.7640   21.0410   46.7140 S.3    30  CYS30      -0.0801
     48  N         50.6270   23.5420   42.1320 N.3    43  ALA43      -0.1245
     49  CA        51.3740   23.0530   43.2860 C.3    43  ALA43       0.1562
     50  C         51.6240   24.2060   44.2560 C.2    43  ALA43       0.2260
     51  O         52.4010   25.1190   43.9670 O.2    43  ALA43      -0.2867
     52  CB        52.6840   22.4190   42.8450 C.3    43  ALA43       0.0290
     53  N         53.0310   25.7620   47.6150 N.3    45  LYS45      -0.1245
     54  CA        53.9600   25.7070   48.7410 C.3    45  LYS45       0.1561
     55  C         53.4230   26.5170   49.9140 C.2    45  LYS45       0.2260
     56  O         53.1670   27.7160   49.7870 O.2    45  LYS45      -0.2867
     57  CB        55.3440   26.2230   48.3380 C.3    45  LYS45       0.0271
     58  CG        56.2680   25.1660   47.7600 C.3    45  LYS45       0.0035
     59  CD        57.7080   25.6560   47.7430 C.3    45  LYS45       0.0206
     60  CE        58.6660   24.5550   47.3220 C.3    45  LYS45       0.1093
     61  NZ        60.0860   24.9940   47.3940 N.3    45  LYS45      -0.1314
     62  N         62.3700   33.6480   41.0020 N.3    68  HIS68      -0.1241
     63  CA        61.4140   32.7290   40.3750 C.3    68  HIS68       0.1621
     64  C         60.2710   33.4660   39.6690 C.2    68  HIS68       0.2264
     65  O         59.8300   33.0470   38.5970 O.2    68  HIS68      -0.2867
     66  CB        60.8490   31.7500   41.4130 C.3    68  HIS68       0.0745
     67  CG        60.3590   30.4580   40.8320 C.ar   68  HIS68       0.0817
     68  ND1       60.6860   29.2310   41.3700 N.ar   68  HIS68      -0.2268
     69  CD2       59.5710   30.1990   39.7620 C.ar   68  HIS68       0.1154
     70  CE1       60.1180   28.2740   40.6580 C.ar   68  HIS68       0.1986
     71  NE2       59.4360   28.8350   39.6760 N.ar   68  HIS68      -0.2212
     72  N         60.0030   25.6110   36.1730 N.3    77  VAL77      -0.1245
     73  CA        58.7070   25.5590   36.8510 C.3    77  VAL77       0.1561
     74  C         58.0850   26.9550   36.8790 C.2    77  VAL77       0.2260
     75  O         58.7230   27.9210   37.3040 O.2    77  VAL77      -0.2867
     76  CB        58.8250   24.9810   38.2860 C.3    77  VAL77       0.0252
     77  CG1       57.4990   25.0940   39.0270 C.3    77  VAL77       0.0019
     78  CG2       59.2840   23.5270   38.2430 C.3    77  VAL77       0.0019
     79  N         52.6630   27.5180   42.4400 N.3    93  LEU93      -0.1231
     80  CA        53.6190   27.0610   41.4300 C.3    93  LEU93       0.1693
     81  C         52.9960   26.0580   40.4590 C.2    93  LEU93       0.2592
     82  O         51.8840   25.5720   40.6810 O.2    93  LEU93      -0.2718
     83  CB        54.8540   26.4510   42.1050 C.3    93  LEU93       0.0284
     84  CG        55.7560   27.3800   42.9260 C.3    93  LEU93       0.0019
     85  CD1       56.4900   26.6060   44.0100 C.3    93  LEU93       0.0001
     86  CD2       56.7370   28.1370   42.0380 C.3    93  LEU93       0.0001
     87  N         53.7220   25.7590   39.3830 N.am   94  GLU94      -0.1966
     88  CA        53.2770   24.8030   38.3690 C.3    94  GLU94       0.1733
     89  C         53.3060   23.3760   38.9130 C.2    94  GLU94       0.2616
     90  O         54.2670   22.9720   39.5720 O.2    94  GLU94      -0.2715
     91  CB        54.1520   24.9110   37.1170 C.3    94  GLU94       0.0429
     92  CG        53.6030   24.1800   35.8950 C.3    94  GLU94       0.1163
     93  CD        54.5860   24.1260   34.7360 C.2    94  GLU94       0.3649
     94  OE1       55.6870   24.7090   34.8400 O.co2  94  GLU94      -0.2457
     95  OE2       54.2520   23.4940   33.7120 O.co2  94  GLU94      -0.2457
     96  N         52.2450   22.6230   38.6320 N.am   95  ILE95      -0.1963
     97  CA        52.1230   21.2430   39.0990 C.3    95  ILE95       0.1727
     98  C         52.8820   20.2640   38.1930 C.2    95  ILE95       0.2616
     99  O         52.7160   20.2720   36.9700 O.2    95  ILE95      -0.2715
    100  CB        50.6250   20.8230   39.2920 C.3    95  ILE95       0.0290
    101  CG1       50.5060   19.4300   39.9250 C.3    95  ILE95       0.0022
    102  CG2       49.8340   20.9140   37.9810 C.3    95  ILE95       0.0023
    103  CD1       50.7240   19.4070   41.4260 C.3    95  ILE95       0.0001
    104  N         53.7270   19.4430   38.8100 N.am   96  CYS96      -0.1954
    105  CA        54.4720   18.4040   38.1030 C.3    96  CYS96       0.1843
    106  C         54.1100   17.0380   38.6800 C.2    96  CYS96       0.2625
    107  O         54.6780   16.5990   39.6840 O.2    96  CYS96      -0.2714
    108  CB        55.9760   18.6650   38.1880 C.3    96  CYS96       0.0997
    109  SG        56.4790   20.2580   37.4980 S.3    96  CYS96      -0.0797
    110  N         53.1580   16.3770   38.0270 N.am   97  ARG97      -0.1977
    111  CA        52.4940   15.1920   38.5760 C.3    97  ARG97       0.1597
    112  C         53.3260   13.9100   38.5400 C.2    97  ARG97       0.2287
    113  O         53.0790   12.9890   39.3220 O.2    97  ARG97      -0.2864
    114  CB        51.1440   14.9690   37.8850 C.3    97  ARG97       0.0334
    115  CG        50.1900   16.1460   38.0170 C.3    97  ARG97       0.0492
    116  CD        48.8080   15.8170   37.4910 C.3    97  ARG97       0.2205
    117  NE        47.9640   17.0090   37.4380 N.pl3  97  ARG97      -0.0865
    118  CZ        46.6510   16.9980   37.2170 C.cat  97  ARG97       0.5346
    119  NH1       46.0060   15.8520   37.0310 N.pl3  97  ARG97       0.1354
    120  NH2       45.9790   18.1420   37.1870 N.pl3  97  ARG97       0.1354
    121  N         56.2840   13.5210   39.4900 N.3    99  ARG99      -0.1231
    122  CA        57.3790   13.7800   40.4330 C.3    99  ARG99       0.1694
    123  C         58.6470   14.3280   39.7660 C.2    99  ARG99       0.2592
    124  O         58.5770   14.9510   38.7050 O.2    99  ARG99      -0.2718
    125  CB        57.6910   12.5440   41.2900 C.3    99  ARG99       0.0321
    126  CG        56.7130   12.2970   42.4330 C.3    99  ARG99       0.0489
    127  CD        55.7080   11.1970   42.1050 C.3    99  ARG99       0.2205
    128  NE        56.3630    9.9300   41.7760 N.pl3  99  ARG99      -0.0865
    129  CZ        56.8400    9.0620   42.6680 C.cat  99  ARG99       0.5346
    130  NH1       56.7480    9.3050   43.9710 N.pl3  99  ARG99       0.1354
    131  NH2       57.4170    7.9430   42.2510 N.pl3  99  ARG99       0.1354
    132  N         59.7960   14.1050   40.4010 N.am  100  SER100     -0.1952
    133  CA        61.0750   14.5830   39.8810 C.3   100  SER100      0.1924
    134  C         61.8880   13.4550   39.2470 C.2   100  SER100      0.2314
    135  O         61.4820   12.2900   39.2720 O.2   100  SER100     -0.2863
    136  CB        61.8820   15.2740   40.9870 C.3   100  SER100      0.2116
    137  OG        62.3550   14.3440   41.9470 O.3   100  SER100     -0.2180
    138  N         64.5140   12.2950   40.3350 N.3   102  LEU102     -0.1231
    139  CA        65.0800   11.5020   41.4270 C.3   102  LEU102      0.1693
    140  C         64.3210   10.1900   41.6250 C.2   102  LEU102      0.2591
    141  O         64.9340    9.1310   41.7740 O.2   102  LEU102     -0.2718
    142  CB        65.0910   12.3170   42.7280 C.3   102  LEU102      0.0284
    143  CG        65.5050   11.6380   44.0410 C.3   102  LEU102      0.0019
    144  CD1       66.9930   11.3100   44.0650 C.3   102  LEU102      0.0001
    145  CD2       65.1320   12.5120   45.2280 C.3   102  LEU102      0.0001
    146  N         62.9910   10.2740   41.6270 N.am  103  GLU103     -0.1979
    147  CA        62.1270    9.1040   41.7930 C.3   103  GLU103      0.1602
    148  C         62.2530    8.1500   40.6100 C.2   103  GLU103      0.2287
    149  O         62.1340    6.9340   40.7710 O.2   103  GLU103     -0.2864
    150  CB        60.6650    9.5230   41.9820 C.3   103  GLU103      0.0415
    151  CG        60.3580   10.1790   43.3290 C.3   103  GLU103      0.1163
    152  CD        60.8590   11.6130   43.4260 C.2   103  GLU103      0.3649
    153  OE1       60.8160   12.3340   42.4080 O.co2 103  GLU103     -0.2457
    154  OE2       61.2930   12.0190   44.5250 O.co2 103  GLU103     -0.2457
    155  N         66.2720   15.8890   42.1590 N.3   143  GLY143     -0.1210
    156  CA        65.0460   16.2800   42.8550 C.3   143  GLY143      0.1956
    157  C         64.4790   17.6130   42.3980 C.2   143  GLY143      0.2611
    158  O         63.2840   17.8720   42.5590 O.2   143  GLY143     -0.2717
    159  N         65.3380   18.4600   41.8340 N.am  144  ASN144     -0.1974
    160  CA        64.9290   19.7610   41.3050 C.3   144  ASN144      0.1688
    161  C         64.4140   19.6770   39.8740 C.2   144  ASN144      0.2292
    162  O         63.7410   20.5920   39.3930 O.2   144  ASN144     -0.2864
    163  CB        66.0880   20.7570   41.3720 C.3   144  ASN144      0.1181
    164  CG        66.5540   21.0240   42.7890 C.2   144  ASN144      0.2629
    165  OD1       65.8360   20.7710   43.7580 O.2   144  ASN144     -0.2716
    166  ND2       67.7660   21.5440   42.9150 N.am  144  ASN144     -0.0877
    167  N         61.9240   18.4620   37.9130 N.3   146  PHE146     -0.1241
    168  CA        60.5530   17.9620   37.9620 C.3   146  PHE146      0.1605
    169  C         60.0640   17.4860   36.5970 C.2   146  PHE146      0.2264
    170  O         60.5680   17.9220   35.5600 O.2   146  PHE146     -0.2867
    171  CB        59.6140   19.0450   38.5030 C.3   146  PHE146      0.0534
    172  CG        59.8470   19.3940   39.9470 C.ar  146  PHE146     -0.0203
    173  CD1       59.2270   18.6690   40.9600 C.ar  146  PHE146     -0.0042
    174  CD2       60.6750   20.4570   40.2940 C.ar  146  PHE146     -0.0042
    175  CE1       59.4370   18.9910   42.3000 C.ar  146  PHE146     -0.0003
    176  CE2       60.8930   20.7880   41.6300 C.ar  146  PHE146     -0.0003
    177  CZ        60.2710   20.0530   42.6340 C.ar  146  PHE146     -0.0000
    178  N         63.0110   23.5080   39.0880 N.3   156  GLY156     -0.1210
    179  CA        62.4320   24.2310   40.2190 C.3   156  GLY156      0.1956
    180  C         63.3840   24.3320   41.3970 C.2   156  GLY156      0.2611
    181  O         64.5770   24.0400   41.2660 O.2   156  GLY156     -0.2717
    182  N         62.8430   24.7490   42.5440 N.am  157  ASP157     -0.1973
    183  CA        63.5930   24.8870   43.8020 C.3   157  ASP157      0.1709
    184  C         64.7940   25.8300   43.6700 C.2   157  ASP157      0.2293
    185  O         65.9350   25.3920   43.5100 O.2   157  ASP157     -0.2864
    186  CB        64.0090   23.5080   44.3450 C.3   157  ASP157      0.1436
    187  CG        64.6120   23.5730   45.7440 C.2   157  ASP157      0.3671
    188  OD1       64.4000   24.5770   46.4610 O.co2 157  ASP157     -0.2456
    189  OD2       65.2990   22.6020   46.1300 O.co2 157  ASP157     -0.2456
@<TRIPOS>BOND
     1    95    93   ar
     2    93    94   ar
     3    93    92    1
     4   170   169    2
     5    92    91    1
     6    72    73    1
     7   169   168    1
     8    73    74    1
     9    73    76    1
    10    74    75    2
    11    99    98    2
    12   119   118    1
    13    91    88    1
    14   120   118    1
    15   118   117    2
    16   117   116    1
    17   116   115    1
    18   109   108    1
    19   114   115    1
    20   114   111    1
    21   167   168    1
    22   168   171    1
    23   102   100    1
    24   110   111    1
    25   110   106   am
    26   105   108    1
    27   105   106    1
    28   105   104    1
    29    98   104   am
    30    98    97    1
    31    78    76    1
    32    76    77    1
    33    88    89    1
    34    88    87    1
    35   171   172    1
    36   112   111    1
    37   112   113    2
    38    65    64    2
    39    96    89   am
    40    96    97    1
    41   106   107    2
    42   124   123    2
    43    89    90    2
    44   178   179    1
    45    97   100    1
    46   134   135    2
    47   134   133    1
    48   100   101    1
    49    87    81   am
    50   162   161    2
    51   121   122    1
    52    64    63    1
    53    71    69   ar
    54    71    70   ar
    55    69    67   ar
    56   123   132   am
    57   123   122    1
    58   161   160    1
    59   133   132    1
    60   133   136    1
    61   101   103    1
    62   172   174   ar
    63   172   173   ar
    64   179   180    1
    65   174   176   ar
    66   138   139    1
    67    63    62    1
    68    63    66    1
    69   122   125    1
    70    81    82    2
    71    81    80    1
    72   148   149    2
    73   148   147    1
    74    70    68   ar
    75    67    68   ar
    76    67    66    1
    77   173   175   ar
    78   136   137    1
    79   181   180    2
    80   125   126    1
    81   160   163    1
    82   160   159    1
    83   163   164    1
    84   180   182   am
    85   139   140    1
    86   139   142    1
    87    80    83    1
    88    80    79    1
    89   140   146   am
    90   140   141    2
    91   146   147    1
    92   176   177   ar
    93   128   127    1
    94   128   129    2
    95   147   150    1
    96   159   157   am
    97   150   151    1
    98    86    84    1
    99   127   126    1
   100    83    84    1
   101    48    49    1
   102   155   156    1
   103   131   129    1
   104   175   177   ar
   105   157   158    2
   106   157   156    1
   107   153   152   ar
   108    11     9    1
   109   182   183    1
   110   129   130    1
   111   142   143    1
   112   164   166   am
   113   164   165    2
   114    52    49    1
   115    84    85    1
   116    49    50    1
   117   151   152    1
   118   152   154   ar
   119   185   184    2
   120     9     8    2
   121     9    10    1
   122   184   183    1
   123     8     7    1
   124   183   186    1
   125    51    50    2
   126   143   144    1
   127   143   145    1
   128   186   187    1
   129     7     6    1
   130    19    17    1
   131    18    17    1
   132   187   189   ar
   133   187   188   ar
   134     6     5    1
   135    17    16    1
   136    47    46    1
   137    16    13    1
   138     5     2    1
   139    60    61    1
   140    60    59    1
   141    53    54    1
   142     1     2    1
   143    59    58    1
   144    58    57    1
   145    13    14    1
   146    13    12    1
   147     4     3    2
   148    15    14    2
   149     2     3    1
   150    57    54    1
   151    46    43    1
   152    14    20   am
   153    54    55    1
   154    44    43    1
   155    44    45    2
   156    43    42    1
   157    20    21    1
   158    56    55    2
   159    21    22    1
   160    22    23    2
   161    22    24   am
   162    24    25    1
   163    27    26    2
   164    34    33    1
   165    34    35    1
   166    26    33   am
   167    26    25    1
   168    41    38    1
   169    25    28    1
   170    36    35    2
   171    39    40    2
   172    39    38    1
   173    38    37    1
   174    28    29    1
   175    29    30    1
   176    30    31    1
   177    31    32    1
