@<TRIPOS>MOLECULE
tmp/3dbeA00.pdb
 179 168 0 0 0
SMALL
GASTEIGER

@<TRIPOS>ATOM
      1  N         17.5130   90.3820   47.7550 N.3    20  ARG20      -0.1231
      2  CA        16.4450   89.5190   48.2580 C.3    20  ARG20       0.1694
      3  C         16.8760   88.0840   48.5210 C.2    20  ARG20       0.2592
      4  O         17.5750   87.4630   47.7170 O.2    20  ARG20      -0.2718
      5  CB        15.1820   89.5820   47.3830 C.3    20  ARG20       0.0321
      6  CG        15.3170   89.0650   45.9590 C.3    20  ARG20       0.0489
      7  CD        14.1280   89.5310   45.1280 C.3    20  ARG20       0.2205
      8  NE        14.1240   88.9640   43.7850 N.pl3  20  ARG20      -0.0865
      9  CZ        13.6660   87.7520   43.4870 C.cat  20  ARG20       0.5346
     10  NH1       13.1740   86.9630   44.4390 N.pl3  20  ARG20       0.1354
     11  NH2       13.7020   87.3210   42.2350 N.pl3  20  ARG20       0.1354
     12  N         16.4600   87.5960   49.6860 N.am   21  PHE21      -0.1962
     13  CA        16.6630   86.2240   50.1080 C.3    21  PHE21       0.1771
     14  C         15.9220   85.2910   49.1630 C.2    21  PHE21       0.2619
     15  O         14.7110   85.4200   48.9640 O.2    21  PHE21      -0.2715
     16  CB        16.1570   86.0640   51.5400 C.3    21  PHE21       0.0574
     17  CG        16.2570   84.6710   52.0770 C.ar   21  PHE21      -0.0200
     18  CD1       15.1060   83.9530   52.3780 C.ar   21  PHE21      -0.0042
     19  CD2       17.4990   84.0810   52.2990 C.ar   21  PHE21      -0.0042
     20  CE1       15.1870   82.6600   52.8870 C.ar   21  PHE21      -0.0003
     21  CE2       17.5970   82.7880   52.8080 C.ar   21  PHE21      -0.0003
     22  CZ        16.4380   82.0750   53.1070 C.ar   21  PHE21      -0.0000
     23  N         16.6670   84.3700   48.5620 N.am   22  LEU22      -0.1963
     24  CA        16.0990   83.4270   47.6170 C.3    22  LEU22       0.1728
     25  C         15.7130   82.1330   48.3050 C.2    22  LEU22       0.2617
     26  O         14.6810   81.5610   47.9830 O.2    22  LEU22      -0.2715
     27  CB        17.0670   83.1530   46.4700 C.3    22  LEU22       0.0311
     28  CG        17.5180   84.3420   45.6170 C.3    22  LEU22       0.0022
     29  CD1       18.7580   83.9570   44.8440 C.3    22  LEU22       0.0001
     30  CD2       16.4270   84.8470   44.6750 C.3    22  LEU22       0.0001
     31  N         16.5420   81.6740   49.2440 N.am   23  GLY23      -0.1940
     32  CA        16.2390   80.4820   50.0480 C.3    23  GLY23       0.2014
     33  C         17.4440   79.8030   50.6750 C.2    23  GLY23       0.2639
     34  O         18.5520   80.3280   50.6260 O.2    23  GLY23      -0.2714
     35  N         17.2270   78.6260   51.2570 N.am   24  LYS24      -0.1963
     36  CA        18.2770   77.9460   52.0160 C.3    24  LYS24       0.1728
     37  C         18.4710   76.4750   51.6350 C.2    24  LYS24       0.2616
     38  O         17.5440   75.8250   51.1680 O.2    24  LYS24      -0.2715
     39  CB        18.0200   78.0890   53.5230 C.3    24  LYS24       0.0311
     40  CG        16.7480   77.4200   54.0280 C.3    24  LYS24       0.0038
     41  CD        16.3820   77.9010   55.4260 C.3    24  LYS24       0.0206
     42  CE        15.0960   77.2450   55.9060 C.3    24  LYS24       0.1093
     43  NZ        14.5630   77.9060   57.1330 N.3    24  LYS24      -0.1314
     44  N         19.6820   75.9640   51.8460 N.am   25  GLY25      -0.1955
     45  CA        20.0120   74.5650   51.5710 C.3    25  GLY25       0.1869
     46  C         21.1080   74.0530   52.4900 C.2    25  GLY25       0.2309
     47  O         22.2940   74.3250   52.2740 O.2    25  GLY25      -0.2863
     48  N         23.7340   76.4920   54.1150 N.3    28  ALA28      -0.1245
     49  CA        23.8210   77.6070   53.1780 C.3    28  ALA28       0.1562
     50  C         22.5090   78.3770   53.0580 C.2    28  ALA28       0.2260
     51  O         21.4350   77.7880   53.0640 O.2    28  ALA28      -0.2867
     52  CB        24.2740   77.1090   51.8110 C.3    28  ALA28       0.0290
     53  N         20.9150   81.4360   50.4920 N.3    30  CYS30      -0.1235
     54  CA        21.1980   82.0360   49.1910 C.3    30  CYS30       0.1677
     55  C         20.4540   83.3540   48.9750 C.2    30  CYS30       0.2270
     56  O         19.2310   83.4170   49.0630 O.2    30  CYS30      -0.2867
     57  CB        20.8920   81.0310   48.0760 C.3    30  CYS30       0.0956
     58  SG        21.1850   81.6550   46.4100 S.3    30  CYS30      -0.0801
     59  N         20.1110   86.9890   46.4660 N.3    32  GLU32      -0.1245
     60  CA        20.4050   87.6100   45.1840 C.3    32  GLU32       0.1567
     61  C         21.3980   88.7370   45.4420 C.2    32  GLU32       0.2260
     62  O         21.1180   89.6370   46.2290 O.2    32  GLU32      -0.2867
     63  CB        19.1180   88.1320   44.5340 C.3    32  GLU32       0.0388
     64  CG        19.3150   89.1400   43.4090 C.3    32  GLU32       0.1160
     65  CD        17.9960   89.6710   42.8460 C.2    32  GLU32       0.3649
     66  OE1       17.3970   88.9860   41.9850 O.co2  32  GLU32      -0.2457
     67  OE2       17.5620   90.7780   43.2500 O.co2  32  GLU32      -0.2457
     68  N         23.8730   84.8370   42.0420 N.3    43  ALA43      -0.1245
     69  CA        23.2630   84.1480   43.1660 C.3    43  ALA43       0.1562
     70  C         24.3330   83.6490   44.1250 C.2    43  ALA43       0.2260
     71  O         25.0330   82.6660   43.8390 O.2    43  ALA43      -0.2867
     72  CB        22.4250   83.0030   42.6720 C.3    43  ALA43       0.0290
     73  N         25.6740   81.9360   47.4490 N.3    45  LYS45      -0.1245
     74  CA        25.5450   81.0640   48.6200 C.3    45  LYS45       0.1561
     75  C         26.2960   81.7130   49.7680 C.2    45  LYS45       0.2260
     76  O         27.4280   82.1640   49.5900 O.2    45  LYS45      -0.2867
     77  CB        26.1500   79.6800   48.3670 C.3    45  LYS45       0.0271
     78  CG        25.3310   78.7700   47.4790 C.3    45  LYS45       0.0035
     79  CD        25.6700   77.2780   47.7900 C.3    45  LYS45       0.0206
     80  CE        24.8920   76.4210   46.7620 C.3    45  LYS45       0.1093
     81  NZ        24.7800   74.9850   47.1580 N.3    45  LYS45      -0.1314
     82  N         26.0200   75.5410   36.1160 N.3    77  VAL77      -0.1245
     83  CA        25.9850   76.8440   36.7720 C.3    77  VAL77       0.1561
     84  C         27.3480   77.5260   36.6390 C.2    77  VAL77       0.2260
     85  O         28.3740   76.9920   37.0750 O.2    77  VAL77      -0.2867
     86  CB        25.5460   76.7370   38.2660 C.3    77  VAL77       0.0252
     87  CG1       25.6360   78.0970   38.9710 C.3    77  VAL77       0.0019
     88  CG2       24.1270   76.1900   38.3700 C.3    77  VAL77       0.0019
     89  N         27.6480   82.6630   42.2100 N.3    93  LEU93      -0.1231
     90  CA        27.1810   81.7370   41.1720 C.3    93  LEU93       0.1693
     91  C         26.1720   82.3570   40.1990 C.2    93  LEU93       0.2592
     92  O         25.7140   83.4860   40.3970 O.2    93  LEU93      -0.2718
     93  CB        26.5840   80.4930   41.8260 C.3    93  LEU93       0.0284
     94  CG        27.5580   79.6450   42.6430 C.3    93  LEU93       0.0019
     95  CD1       26.8670   79.0500   43.8550 C.3    93  LEU93       0.0001
     96  CD2       28.1950   78.5630   41.7800 C.3    93  LEU93       0.0001
     97  N         25.8320   81.6060   39.1510 N.am   94  GLU94      -0.1966
     98  CA        24.9700   82.0930   38.0720 C.3    94  GLU94       0.1733
     99  C         23.5110   82.1290   38.5050 C.2    94  GLU94       0.2616
    100  O         22.9690   81.1250   38.9510 O.2    94  GLU94      -0.2715
    101  CB        25.1250   81.2040   36.8320 C.3    94  GLU94       0.0429
    102  CG        24.4610   81.7430   35.5630 C.3    94  GLU94       0.1163
    103  CD        24.3090   80.6880   34.4620 C.2    94  GLU94       0.3649
    104  OE1       24.9990   79.6350   34.5070 O.co2  94  GLU94      -0.2457
    105  OE2       23.4940   80.9270   33.5420 O.co2  94  GLU94      -0.2457
    106  N         22.8730   83.2840   38.3630 N.am   95  ILE95      -0.1963
    107  CA        21.4800   83.4350   38.7730 C.3    95  ILE95       0.1727
    108  C         20.5430   82.6250   37.8700 C.2    95  ILE95       0.2616
    109  O         20.6660   82.6600   36.6440 O.2    95  ILE95      -0.2715
    110  CB        21.0650   84.9320   38.8320 C.3    95  ILE95       0.0290
    111  CG1       19.7050   85.1060   39.5170 C.3    95  ILE95       0.0022
    112  CG2       21.1070   85.5880   37.4440 C.3    95  ILE95       0.0023
    113  CD1       19.7860   85.2430   41.0180 C.3    95  ILE95       0.0001
    114  N         19.6300   81.8800   38.4900 N.am   96  CYS96      -0.1954
    115  CA        18.6250   81.1030   37.7630 C.3    96  CYS96       0.1843
    116  C         17.2170   81.4730   38.2110 C.2    96  CYS96       0.2625
    117  O         16.6760   80.9030   39.1610 O.2    96  CYS96      -0.2714
    118  CB        18.8810   79.6170   37.9350 C.3    96  CYS96       0.0997
    119  SG        20.3120   79.1030   37.0210 S.3    96  CYS96      -0.0797
    120  N         16.6250   82.4170   37.4890 N.am   97  ARG97      -0.1977
    121  CA        15.4300   83.1180   37.9490 C.3    97  ARG97       0.1597
    122  C         14.1240   82.3180   37.8830 C.2    97  ARG97       0.2287
    123  O         13.0520   82.8440   38.1970 O.2    97  ARG97      -0.2864
    124  CB        15.2720   84.4570   37.2100 C.3    97  ARG97       0.0334
    125  CG        16.5470   85.2730   37.1040 C.3    97  ARG97       0.0492
    126  CD        16.2430   86.7460   37.0690 C.3    97  ARG97       0.2205
    127  NE        17.4180   87.5030   36.6590 N.pl3  97  ARG97      -0.0865
    128  CZ        17.6490   88.7740   36.9840 C.cat  97  ARG97       0.5346
    129  NH1       16.7860   89.4490   37.7420 N.pl3  97  ARG97       0.1354
    130  NH2       18.7560   89.3730   36.5540 N.pl3  97  ARG97       0.1354
    131  N         13.6230   79.2420   39.5320 N.3    99  ARG99      -0.1231
    132  CA        13.8150   78.1740   40.5180 C.3    99  ARG99       0.1694
    133  C         14.4340   76.9210   39.8820 C.2    99  ARG99       0.2592
    134  O         15.3070   77.0390   39.0180 O.2    99  ARG99      -0.2718
    135  CB        12.5010   77.8460   41.2440 C.3    99  ARG99       0.0321
    136  CG        12.0280   78.9060   42.2330 C.3    99  ARG99       0.0489
    137  CD        11.8450   78.2780   43.6070 C.3    99  ARG99       0.2205
    138  NE        10.7310   78.8510   44.3590 N.pl3  99  ARG99      -0.0865
    139  CZ        10.2840   78.3810   45.5250 C.cat  99  ARG99       0.5346
    140  NH1       10.8480   77.3160   46.0960 N.pl3  99  ARG99       0.1354
    141  NH2        9.2610   78.9780   46.1250 N.pl3  99  ARG99       0.1354
    142  N         13.9830   75.7350   40.2920 N.am  100  SER100     -0.1952
    143  CA        14.5290   74.4860   39.7670 C.3   100  SER100      0.1924
    144  C         13.4670   73.6570   39.0700 C.2   100  SER100      0.2314
    145  O         12.3060   74.0540   38.9810 O.2   100  SER100     -0.2863
    146  CB        15.1750   73.6570   40.8810 C.3   100  SER100      0.2116
    147  OG        14.2000   72.9310   41.6160 O.3   100  SER100     -0.2180
    148  N         10.3990   72.5110   41.6270 N.3   103  GLU103     -0.1245
    149  CA         9.2560   73.3990   41.7730 C.3   103  GLU103      0.1567
    150  C          8.3390   73.2580   40.5790 C.2   103  GLU103      0.2260
    151  O          7.1260   73.3390   40.7150 O.2   103  GLU103     -0.2867
    152  CB         9.7070   74.8490   41.9380 C.3   103  GLU103      0.0388
    153  CG        10.2750   75.1540   43.3130 C.3   103  GLU103      0.1160
    154  CD        11.6250   74.5030   43.5500 C.2   103  GLU103      0.3649
    155  OE1       12.6490   75.0970   43.1490 O.co2 103  GLU103     -0.2457
    156  OE2       11.6570   73.3960   44.1380 O.co2 103  GLU103     -0.2457
    157  N         16.0500   69.3570   42.1220 N.3   143  GLY143     -0.1225
    158  CA        16.4590   70.5750   42.8280 C.3   143  GLY143      0.1811
    159  C         17.8220   71.1000   42.4110 C.2   143  GLY143      0.2280
    160  O         18.2030   72.2160   42.7740 O.2   143  GLY143     -0.2866
    161  N         18.7230   73.5990   37.5760 N.3   146  PHE146     -0.1241
    162  CA        18.2630   74.9770   37.7060 C.3   146  PHE146      0.1605
    163  C         17.7160   75.5200   36.3900 C.2   146  PHE146      0.2264
    164  O         18.2120   75.1640   35.3210 O.2   146  PHE146     -0.2867
    165  CB        19.3960   75.8650   38.2340 C.3   146  PHE146      0.0534
    166  CG        19.7560   75.6000   39.6760 C.ar  146  PHE146     -0.0203
    167  CD1       19.2720   76.4260   40.6890 C.ar  146  PHE146     -0.0042
    168  CD2       20.5770   74.5220   40.0210 C.ar  146  PHE146     -0.0042
    169  CE1       19.6010   76.1850   42.0210 C.ar  146  PHE146     -0.0003
    170  CE2       20.9100   74.2680   41.3470 C.ar  146  PHE146     -0.0003
    171  CZ        20.4240   75.1010   42.3500 C.ar  146  PHE146     -0.0000
    172  N         24.8640   72.5810   42.2750 N.3   157  ASP157     -0.1239
    173  CA        25.1350   71.8150   43.5110 C.3   157  ASP157      0.1674
    174  C         26.0700   70.6130   43.3250 C.2   157  ASP157      0.2266
    175  O         25.6690   69.5770   42.8040 O.2   157  ASP157     -0.2867
    176  CB        23.8210   71.3910   44.1860 C.3   157  ASP157      0.1410
    177  CG        23.9970   71.0130   45.6520 C.2   157  ASP157      0.3668
    178  OD1       25.0460   71.3290   46.2650 O.co2 157  ASP157     -0.2456
    179  OD2       23.0600   70.3940   46.1970 O.co2 157  ASP157     -0.2456
@<TRIPOS>BOND
     1   105   103   ar
     2   103   104   ar
     3   103   102    1
     4   164   163    2
     5   102   101    1
     6    82    83    1
     7   163   162    1
     8   130   128    1
     9    84    83    1
    10    84    85    2
    11   109   108    2
    12   127   128    2
    13   127   126    1
    14    83    86    1
    15   101    98    1
    16   128   129    1
    17   119   118    1
    18   126   125    1
    19   125   124    1
    20   124   121    1
    21   112   110    1
    22   120   121    1
    23   120   116   am
    24   161   162    1
    25   162   165    1
    26   115   118    1
    27   115   116    1
    28   115   114    1
    29   108   114   am
    30   108   107    1
    31   122   121    1
    32   122   123    2
    33    98    99    1
    34    98    97    1
    35   116   117    2
    36   165   166    1
    37    86    88    1
    38    86    87    1
    39   106    99   am
    40   106   107    1
    41    99   100    2
    42   107   110    1
    43   110   111    1
    44   145   144    2
    45   134   133    2
    46   144   143    1
    47    97    91   am
    48   111   113    1
    49   131   132    1
    50   166   168   ar
    51   166   167   ar
    52   143   142    1
    53   143   146    1
    54   133   142   am
    55   133   132    1
    56   168   170   ar
    57    91    92    2
    58    91    90    1
    59   132   135    1
    60   150   151    2
    61   150   149    1
    62   167   169   ar
    63   146   147    1
    64    90    93    1
    65    90    89    1
    66   135   136    1
    67   170   171   ar
    68   148   149    1
    69   149   152    1
    70    96    94    1
    71    93    94    1
    72   152   153    1
    73    66    65   ar
    74   169   171   ar
    75    68    69    1
    76   157   158    1
    77   136   137    1
    78    11     9    1
    79   172   173    1
    80   159   160    2
    81   159   158    1
    82    94    95    1
    83    72    69    1
    84   175   174    2
    85    65    67   ar
    86    65    64    1
    87   155   154   ar
    88    69    70    1
    89   153   154    1
    90   174   173    1
    91    64    63    1
    92     9     8    2
    93     9    10    1
    94   173   176    1
    95   154   156   ar
    96   137   138    1
    97     8     7    1
    98    71    70    2
    99   176   177    1
   100   138   139    2
   101    63    60    1
   102    30    28    1
   103    29    28    1
   104     7     6    1
   105    60    61    1
   106    60    59    1
   107    61    62    2
   108   139   140    1
   109   139   141    1
   110    28    27    1
   111   177   179   ar
   112   177   178   ar
   113     6     5    1
   114    58    57    1
   115    27    24    1
   116    80    81    1
   117    80    79    1
   118     5     2    1
   119    73    74    1
   120    78    79    1
   121    78    77    1
   122    24    25    1
   123    24    23    1
   124     4     3    2
   125     1     2    1
   126    26    25    2
   127    57    54    1
   128     2     3    1
   129    25    31   am
   130    77    74    1
   131     3    12   am
   132    23    14   am
   133    74    75    1
   134    15    14    2
   135    55    56    2
   136    55    54    1
   137    14    13    1
   138    54    53    1
   139    31    32    1
   140    76    75    2
   141    12    13    1
   142    32    33    1
   143    13    16    1
   144    34    33    2
   145    33    35   am
   146    38    37    2
   147    35    36    1
   148    16    17    1
   149    45    44    1
   150    45    46    1
   151    37    44   am
   152    37    36    1
   153    52    49    1
   154    36    39    1
   155    17    19   ar
   156    17    18   ar
   157    47    46    2
   158    19    21   ar
   159    18    20   ar
   160    21    22   ar
   161    20    22   ar
   162    50    51    2
   163    50    49    1
   164    49    48    1
   165    39    40    1
   166    40    41    1
   167    41    42    1
   168    42    43    1
