@<TRIPOS>MOLECULE
tmp/3dbfA00.pdb
 173 163 0 0 0
SMALL
GASTEIGER

@<TRIPOS>ATOM
      1  N         50.0580  115.3210   22.3340 N.3    20  ARG20      -0.1231
      2  CA        51.1460  115.8220   21.4890 C.3    20  ARG20       0.1694
      3  C         50.7610  116.0970   20.0380 C.2    20  ARG20       0.2592
      4  O         49.9870  115.3510   19.4410 O.2    20  ARG20      -0.2718
      5  CB        52.3770  114.9090   21.5660 C.3    20  ARG20       0.0321
      6  CG        52.1550  113.4570   21.1710 C.3    20  ARG20       0.0489
      7  CD        53.3780  112.6300   21.5390 C.3    20  ARG20       0.2205
      8  NE        53.3140  111.2610   21.0330 N.pl3  20  ARG20      -0.0865
      9  CZ        53.8360  110.8620   19.8760 C.cat  20  ARG20       0.5346
     10  NH1       54.4630  111.7250   19.0850 N.pl3  20  ARG20       0.1354
     11  NH2       53.7290  109.5930   19.5090 N.pl3  20  ARG20       0.1354
     12  N         51.3190  117.1770   19.4940 N.am   21  PHE21      -0.1962
     13  CA        51.1310  117.5810   18.0970 C.3    21  PHE21       0.1771
     14  C         51.7420  116.5550   17.1500 C.2    21  PHE21       0.2619
     15  O         52.8470  116.0630   17.3910 O.2    21  PHE21      -0.2715
     16  CB        51.7670  118.9550   17.8800 C.3    21  PHE21       0.0574
     17  CG        51.5530  119.5310   16.5090 C.ar   21  PHE21      -0.0200
     18  CD1       52.6320  119.7390   15.6580 C.ar   21  PHE21      -0.0042
     19  CD2       50.2820  119.8940   16.0780 C.ar   21  PHE21      -0.0042
     20  CE1       52.4480  120.2880   14.3850 C.ar   21  PHE21      -0.0003
     21  CE2       50.0840  120.4430   14.8080 C.ar   21  PHE21      -0.0003
     22  CZ        51.1690  120.6400   13.9610 C.ar   21  PHE21      -0.0000
     23  N         51.0190  116.2310   16.0810 N.am   22  LEU22      -0.1963
     24  CA        51.4510  115.1880   15.1490 C.3    22  LEU22       0.1728
     25  C         51.7540  115.7230   13.7550 C.2    22  LEU22       0.2617
     26  O         52.5840  115.1610   13.0380 O.2    22  LEU22      -0.2715
     27  CB        50.4130  114.0680   15.0640 C.3    22  LEU22       0.0311
     28  CG        50.0460  113.2600   16.3130 C.3    22  LEU22       0.0022
     29  CD1       49.2670  112.0270   15.8900 C.3    22  LEU22       0.0001
     30  CD2       51.2630  112.8540   17.1320 C.3    22  LEU22       0.0001
     31  N         51.0810  116.7990   13.3650 N.am   23  GLY23      -0.1940
     32  CA        51.3500  117.4060   12.0700 C.3    23  GLY23       0.2014
     33  C         50.1980  118.1820   11.4730 C.2    23  GLY23       0.2639
     34  O         49.0850  118.1850   12.0060 O.2    23  GLY23      -0.2714
     35  N         50.4830  118.8390   10.3540 N.am   24  LYS24      -0.1963
     36  CA        49.5160  119.6770    9.6600 C.3    24  LYS24       0.1728
     37  C         49.0680  119.0050    8.3620 C.2    24  LYS24       0.2616
     38  O         49.6860  118.0390    7.9150 O.2    24  LYS24      -0.2715
     39  CB        50.0920  121.0840    9.4040 C.3    24  LYS24       0.0311
     40  CG        51.5390  121.1300    8.8700 C.3    24  LYS24       0.0038
     41  CD        52.5870  121.1670   10.0010 C.3    24  LYS24       0.0206
     42  CE        54.0130  120.9470    9.4850 C.3    24  LYS24       0.1093
     43  NZ        54.2870  119.5360    9.0730 N.3    24  LYS24      -0.1314
     44  N         47.9840  119.5100    7.7770 N.am   25  GLY25      -0.1955
     45  CA        47.4480  118.9870    6.5210 C.3    25  GLY25       0.1869
     46  C         46.4610  119.9650    5.9150 C.2    25  GLY25       0.2309
     47  O         45.2470  119.7940    6.0420 O.2    25  GLY25      -0.2863
     48  N         44.0000  121.6250    8.3820 N.3    28  ALA28      -0.1245
     49  CA        43.8150  120.6760    9.4750 C.3    28  ALA28       0.1562
     50  C         45.0930  120.4410   10.2710 C.2    28  ALA28       0.2260
     51  O         46.1870  120.4230    9.7120 O.2    28  ALA28      -0.2867
     52  CB        43.2760  119.3580    8.9400 C.3    28  ALA28       0.0290
     53  N         46.6830  117.8290   13.4610 N.3    30  CYS30      -0.1235
     54  CA        46.4580  116.5710   14.1660 C.3    30  CYS30       0.1677
     55  C         47.1520  116.4880   15.5100 C.2    30  CYS30       0.2270
     56  O         48.3190  116.8550   15.6470 O.2    30  CYS30      -0.2867
     57  CB        46.8760  115.3860   13.3060 C.3    30  CYS30       0.0956
     58  SG        46.3970  113.7690   13.9730 S.3    30  CYS30      -0.0801
     59  N         47.5640  113.7640   19.0210 N.3    32  GLU32      -0.1245
     60  CA        47.2960  112.5350   19.7430 C.3    32  GLU32       0.1567
     61  C         46.2770  112.8870   20.8230 C.2    32  GLU32       0.2260
     62  O         46.5730  113.6690   21.7250 O.2    32  GLU32      -0.2867
     63  CB        48.5910  111.9910   20.3560 C.3    32  GLU32       0.0388
     64  CG        48.4360  110.7000   21.1460 C.3    32  GLU32       0.1160
     65  CD        49.7680  110.1070   21.5920 C.2    32  GLU32       0.3649
     66  OE1       50.4660  109.5010   20.7510 O.co2  32  GLU32      -0.2457
     67  OE2       50.1130  110.2290   22.7890 O.co2  32  GLU32      -0.2457
     68  N         43.8960  109.4750   16.7900 N.3    43  ALA43      -0.1245
     69  CA        44.4040  110.5900   16.0090 C.3    43  ALA43       0.1562
     70  C         43.2780  111.5830   15.7320 C.2    43  ALA43       0.2260
     71  O         42.3360  111.2780   14.9970 O.2    43  ALA43      -0.2867
     72  CB        45.0010  110.0880   14.7130 C.3    43  ALA43       0.0290
     73  N         41.8420  114.8730   14.1230 N.3    45  LYS45      -0.1245
     74  CA        41.8470  115.9840   13.1740 C.3    45  LYS45       0.1561
     75  C         41.0370  117.1430   13.7300 C.2    45  LYS45       0.2260
     76  O         39.8620  116.9790   14.0620 O.2    45  LYS45      -0.2867
     77  CB        41.2570  115.5610   11.8300 C.3    45  LYS45       0.0271
     78  CG        42.2680  115.0800   10.8110 C.3    45  LYS45       0.0035
     79  CD        41.6970  115.2030    9.4110 C.3    45  LYS45       0.0206
     80  CE        42.7050  114.8080    8.3550 C.3    45  LYS45       0.1093
     81  NZ        42.1240  114.9810    6.9950 N.3    45  LYS45      -0.1314
     82  N         41.7730  103.4090    7.5220 N.3    77  VAL77      -0.1245
     83  CA        41.7970  104.1340    8.7890 C.3    77  VAL77       0.1561
     84  C         40.4290  104.0480    9.4750 C.2    77  VAL77       0.2260
     85  O         39.4020  104.4170    8.8960 O.2    77  VAL77      -0.2867
     86  CB        42.2290  105.6140    8.5880 C.3    77  VAL77       0.0252
     87  CG1       41.9570  106.4530    9.8430 C.3    77  VAL77       0.0019
     88  CG2       43.7010  105.6880    8.2070 C.3    77  VAL77       0.0019
     89  N         40.0030  109.5800   14.8240 N.3    93  LEU93      -0.1231
     90  CA        40.4500  108.5270   13.9110 C.3    93  LEU93       0.1693
     91  C         41.4620  107.5650   14.5300 C.2    93  LEU93       0.2592
     92  O         41.9530  107.7920   15.6380 O.2    93  LEU93      -0.2718
     93  CB        41.0360  109.1450   12.6400 C.3    93  LEU93       0.0284
     94  CG        40.0710  109.8320   11.6750 C.3    93  LEU93       0.0019
     95  CD1       40.8420  110.4870   10.5380 C.3    93  LEU93       0.0001
     96  CD2       39.0330  108.8490   11.1380 C.3    93  LEU93       0.0001
     97  N         41.7640  106.4930   13.7930 N.am   94  GLU94      -0.1966
     98  CA        42.7260  105.4740   14.2040 C.3    94  GLU94       0.1733
     99  C         44.1390  106.0500   14.2680 C.2    94  GLU94       0.2616
    100  O         44.5740  106.7530   13.3520 O.2    94  GLU94      -0.2715
    101  CB        42.6810  104.2890   13.2350 C.3    94  GLU94       0.0429
    102  CG        43.5220  103.0810   13.6570 C.3    94  GLU94       0.1163
    103  CD        43.3300  101.8650   12.7560 C.2    94  GLU94       0.3649
    104  OE1       42.6370  101.9640   11.7160 O.co2  94  GLU94      -0.2457
    105  OE2       43.8820  100.7980   13.0910 O.co2  94  GLU94      -0.2457
    106  N         44.8420  105.7520   15.3570 N.am   95  ILE95      -0.1963
    107  CA        46.2170  106.2150   15.5420 C.3    95  ILE95       0.1727
    108  C         47.2190  105.2740   14.8570 C.2    95  ILE95       0.2616
    109  O         47.2310  104.0620   15.1030 O.2    95  ILE95      -0.2715
    110  CB        46.5560  106.4340   17.0520 C.3    95  ILE95       0.0290
    111  CG1       47.9080  107.1350   17.2270 C.3    95  ILE95       0.0022
    112  CG2       46.4930  105.1240   17.8480 C.3    95  ILE95       0.0023
    113  CD1       47.8300  108.6470   17.1710 C.3    95  ILE95       0.0001
    114  N         48.0440  105.8480   13.9840 N.am   96  CYS96      -0.1954
    115  CA        49.0680  105.0950   13.2620 C.3    96  CYS96       0.1843
    116  C         50.4500  105.6190   13.6280 C.2    96  CYS96       0.2625
    117  O         50.9460  106.5820   13.0400 O.2    96  CYS96      -0.2714
    118  CB        48.8170  105.1730   11.7600 C.3    96  CYS96       0.0997
    119  SG        47.1860  104.5720   11.3060 S.3    96  CYS96      -0.0797
    120  N         51.0680  104.9620   14.6040 N.am   97  ARG97      -0.1977
    121  CA        52.2440  105.5070   15.2840 C.3    97  ARG97       0.1597
    122  C         53.5460  105.4570   14.4780 C.2    97  ARG97       0.2287
    123  O         54.5920  105.9200   14.9440 O.2    97  ARG97      -0.2864
    124  CB        52.4180  104.8480   16.6590 C.3    97  ARG97       0.0334
    125  CG        51.1240  104.7620   17.4380 C.3    97  ARG97       0.0492
    126  CD        51.3440  104.6530   18.9230 C.3    97  ARG97       0.2205
    127  NE        50.1530  104.1090   19.5700 N.pl3  97  ARG97      -0.0865
    128  CZ        49.7490  104.4180   20.7990 C.cat  97  ARG97       0.5346
    129  NH1       50.4340  105.2880   21.5350 N.pl3  97  ARG97       0.1354
    130  NH2       48.6460  103.8610   21.2900 N.pl3  97  ARG97       0.1354
    131  N         53.9170  106.8370   11.3580 N.3    99  ARG99      -0.1245
    132  CA        53.7680  107.8250   10.2860 C.3    99  ARG99       0.1563
    133  C         53.3000  107.1590    8.9810 C.2    99  ARG99       0.2260
    134  O         52.5300  106.1980    9.0330 O.2    99  ARG99      -0.2867
    135  CB        55.0510  108.6590   10.1210 C.3    99  ARG99       0.0307
    136  CG        55.4420  109.4380   11.3870 C.3    99  ARG99       0.0489
    137  CD        56.5790  110.4350   11.1530 C.3    99  ARG99       0.2205
    138  NE        56.1540  111.6680   10.4730 N.pl3  99  ARG99      -0.0865
    139  CZ        56.9910  112.6270   10.0660 C.cat  99  ARG99       0.5346
    140  NH1       58.2990  112.5050   10.2620 N.pl3  99  ARG99       0.1354
    141  NH2       56.5320  113.7120    9.4550 N.pl3  99  ARG99       0.1354
    142  N         57.2380  108.9910    4.5730 N.3   103  GLU103     -0.1245
    143  CA        58.4110  109.0780    5.4290 C.3   103  GLU103      0.1567
    144  C         59.3230  107.8860    5.1970 C.2   103  GLU103      0.2260
    145  O         60.5390  108.0330    5.1640 O.2   103  GLU103     -0.2867
    146  CB        58.0130  109.1810    6.9030 C.3   103  GLU103      0.0388
    147  CG        57.3400  110.4950    7.2590 C.3   103  GLU103      0.1160
    148  CD        55.9800  110.6510    6.5980 C.2   103  GLU103      0.3649
    149  OE1       55.0010  110.0570    7.0970 O.co2 103  GLU103     -0.2457
    150  OE2       55.8930  111.3640    5.5750 O.co2 103  GLU103     -0.2457
    151  N         48.9960  105.0730    5.6510 N.3   146  PHE146     -0.1241
    152  CA        49.4680  105.1820    7.0270 C.3   146  PHE146      0.1605
    153  C         49.9950  103.8490    7.5480 C.2   146  PHE146      0.2264
    154  O         49.5080  102.7840    7.1570 O.2   146  PHE146     -0.2867
    155  CB        48.3500  105.7240    7.9290 C.3   146  PHE146      0.0534
    156  CG        47.8800  107.1050    7.5490 C.ar  146  PHE146     -0.0203
    157  CD1       48.3790  108.2270    8.1980 C.ar  146  PHE146     -0.0042
    158  CD2       46.9480  107.2870    6.5350 C.ar  146  PHE146     -0.0042
    159  CE1       47.9570  109.5070    7.8450 C.ar  146  PHE146     -0.0003
    160  CE2       46.5230  108.5650    6.1710 C.ar  146  PHE146     -0.0003
    161  CZ        47.0240  109.6740    6.8310 C.ar  146  PHE146     -0.0000
    162  N         44.0030  106.1380    4.6180 N.3   156  GLY156     -0.1210
    163  CA        43.2340  107.2420    5.1810 C.3   156  GLY156      0.1956
    164  C         43.0080  108.3460    4.1660 C.2   156  GLY156      0.2611
    165  O         43.2320  108.1510    2.9630 O.2   156  GLY156     -0.2717
    166  N         42.5500  109.4980    4.6650 N.am  157  ASP157     -0.1973
    167  CA        42.3760  110.7350    3.8860 C.3   157  ASP157      0.1709
    168  C         41.4170  110.6140    2.6980 C.2   157  ASP157      0.2293
    169  O         41.8190  110.2600    1.5900 O.2   157  ASP157     -0.2864
    170  CB        43.7350  111.2910    3.4380 C.3   157  ASP157      0.1436
    171  CG        43.6460  112.7080    2.9100 C.2   157  ASP157      0.3671
    172  OD1       42.6650  113.4190    3.2270 O.co2 157  ASP157     -0.2456
    173  OD2       44.5720  113.1160    2.1780 O.co2 157  ASP157     -0.2456
@<TRIPOS>BOND
     1   169   168    2
     2   173   171   ar
     3   168   167    1
     4   171   172   ar
     5   171   170    1
     6   165   164    2
     7   170   167    1
     8   167   166    1
     9   164   166   am
    10   164   163    1
    11   142   143    1
    12   162   163    1
    13   145   144    2
    14   144   143    1
    15   143   146    1
    16   150   148   ar
    17   151   152    1
    18    46    47    2
    19    46    45    1
    20   160   158   ar
    21   160   161   ar
    22    45    44    1
    23   158   156   ar
    24   148   149   ar
    25   148   147    1
    26   161   159   ar
    27   146   147    1
    28    81    80    1
    29   152   153    1
    30   152   155    1
    31   154   153    2
    32    82    83    1
    33   156   155    1
    34   156   157   ar
    35    44    37   am
    36   159   157   ar
    37    38    37    2
    38    88    86    1
    39    80    79    1
    40    37    36    1
    41    48    49    1
    42    86    83    1
    43    86    87    1
    44    83    84    1
    45    40    39    1
    46    40    41    1
    47    85    84    2
    48    52    49    1
    49   133   134    2
    50   133   132    1
    51    43    42    1
    52    39    36    1
    53    79    78    1
    54   141   139    1
    55    49    50    1
    56    42    41    1
    57    36    35    1
    58    51    50    2
    59   139   140    1
    60   139   138    2
    61   135   132    1
    62   135   136    1
    63   132   131    1
    64    35    33   am
    65   138   137    1
    66    95    94    1
    67    78    77    1
    68    96    94    1
    69   137   136    1
    70   119   118    1
    71    33    34    2
    72    33    32    1
    73    94    93    1
    74   104   103   ar
    75   118   115    1
    76    77    74    1
    77    32    31    1
    78    93    90    1
    79   103   105   ar
    80   103   102    1
    81    26    25    2
    82   117   116    2
    83    74    75    1
    84    74    73    1
    85   101   102    1
    86   101    98    1
    87   115   116    1
    88   115   114    1
    89    57    58    1
    90    57    54    1
    91   100    99    2
    92    31    25   am
    93    53    54    1
    94   116   120   am
    95    75    76    2
    96    25    24    1
    97    97    98    1
    98    97    91   am
    99    90    91    1
   100    90    89    1
   101    22    20   ar
   102    22    21   ar
   103   114   108   am
   104    54    55    1
   105    98    99    1
   106    99   106   am
   107    20    18   ar
   108   122   123    2
   109   122   121    1
   110    91    92    2
   111   120   121    1
   112    72    69    1
   113    21    19   ar
   114   108   109    2
   115   108   107    1
   116    71    70    2
   117    27    24    1
   118    27    28    1
   119    24    23    1
   120   121   124    1
   121   106   107    1
   122    55    56    2
   123   107   110    1
   124    18    17   ar
   125    70    69    1
   126    29    28    1
   127    69    68    1
   128    19    17   ar
   129    23    14   am
   130    28    30    1
   131    17    16    1
   132   124   125    1
   133   110   111    1
   134   110   112    1
   135    14    15    2
   136    14    13    1
   137   113   111    1
   138   125   126    1
   139    16    13    1
   140    13    12    1
   141   126   127    1
   142    59    60    1
   143    10     9    1
   144     4     3    2
   145    12     3   am
   146    11     9    1
   147   127   128    2
   148    60    63    1
   149    60    61    1
   150     9     8    2
   151     3     2    1
   152    63    64    1
   153    66    65   ar
   154   128   130    1
   155   128   129    1
   156    61    62    2
   157     8     7    1
   158    64    65    1
   159     6     7    1
   160     6     5    1
   161     2     5    1
   162     2     1    1
   163    65    67   ar
