@<TRIPOS>MOLECULE
tmp/3dbjC00.pdb
 189 179 0 0 0
SMALL
GASTEIGER

@<TRIPOS>ATOM
      1  N         88.2150   -6.5680   78.8570 N.3    57  LEU57      -0.1245
      2  CA        88.2310   -5.1530   78.5010 C.3    57  LEU57       0.1561
      3  C         89.6310   -4.5610   78.5930 C.2    57  LEU57       0.2260
      4  O         90.0890   -3.8780   77.6750 O.2    57  LEU57      -0.2867
      5  CB        87.3000   -4.3500   79.4100 C.3    57  LEU57       0.0270
      6  CG        87.4360   -2.8280   79.2540 C.3    57  LEU57       0.0019
      7  CD1       86.9050   -2.4070   77.8930 C.3    57  LEU57       0.0001
      8  CD2       86.6860   -2.1130   80.3670 C.3    57  LEU57       0.0001
      9  N         93.3550    2.1300   79.2080 N.3    64  VAL64      -0.1245
     10  CA        92.4960    2.3390   80.3680 C.3    64  VAL64       0.1561
     11  C         93.2390    2.0410   81.6660 C.2    64  VAL64       0.2260
     12  O         93.0610    2.7330   82.6670 O.2    64  VAL64      -0.2867
     13  CB        91.2310    1.4620   80.2990 C.3    64  VAL64       0.0252
     14  CG1       90.5150    1.4590   81.6400 C.3    64  VAL64       0.0019
     15  CG2       90.3070    1.9510   79.1940 C.3    64  VAL64       0.0019
     16  N         92.1990    6.5170   82.8660 N.3    70  ASN70      -0.1225
     17  CA        91.3680    6.6560   84.0570 C.3    70  ASN70       0.1785
     18  C         91.7080    5.6180   85.1210 C.2    70  ASN70       0.2597
     19  O         92.2600    5.9480   86.1700 O.2    70  ASN70      -0.2718
     20  CB        89.8860    6.5680   83.6900 C.3    70  ASN70       0.1169
     21  CG        89.0160    7.4540   84.5590 C.2    70  ASN70       0.2627
     22  OD1       87.8400    7.1660   84.7790 O.2    70  ASN70      -0.2716
     23  ND2       89.5920    8.5420   85.0580 N.am   70  ASN70      -0.0877
     24  N         91.3740    4.3620   84.8430 N.am   71  ALA71      -0.1979
     25  CA        91.4710    3.3040   85.8420 C.3    71  ALA71       0.1597
     26  C         92.9100    2.8220   85.9960 C.2    71  ALA71       0.2287
     27  O         93.3670    1.9570   85.2490 O.2    71  ALA71      -0.2864
     28  CB        90.5560    2.1450   85.4780 C.3    71  ALA71       0.0319
     29  N         92.0400    3.1300   91.2440 N.3    76  MET76      -0.1245
     30  CA        91.0800    3.4760   90.2140 C.3    76  MET76       0.1570
     31  C         90.4430    2.2800   89.5300 C.2    76  MET76       0.2261
     32  O         89.2370    2.2700   89.2960 O.2    76  MET76      -0.2867
     33  CB        91.7510    4.3760   89.1820 C.3    76  MET76       0.0387
     34  CG        92.2420    5.6850   89.7670 C.3    76  MET76       0.0595
     35  SD        90.9140    6.6860   90.5080 S.3    76  MET76      -0.1393
     36  CE        90.9040    6.1040   92.2480 C.3    76  MET76       0.0692
     37  N         87.4210    0.6390   91.2280 N.3    79  THR79      -0.1203
     38  CA        86.1520    1.3330   91.0690 C.3    79  THR79       0.1994
     39  C         85.5980    1.1160   89.6590 C.2    79  THR79       0.2618
     40  O         84.3830    1.0190   89.4740 O.2    79  THR79      -0.2717
     41  CB        86.2920    2.8600   91.3440 C.3    79  THR79       0.1784
     42  OG1       86.2920    3.5790   90.1060 O.3    79  THR79      -0.2211
     43  CG2       87.5850    3.1570   92.1030 C.3    79  THR79       0.0376
     44  N         86.4820    1.0330   88.6670 N.am   80  CYS80      -0.1969
     45  CA        86.0210    0.8110   87.3070 C.3    80  CYS80       0.1712
     46  C         85.1730   -0.4440   87.2890 C.2    80  CYS80       0.2296
     47  O         84.0700   -0.4570   86.7390 O.2    80  CYS80      -0.2864
     48  CB        87.1880    0.6460   86.3360 C.3    80  CYS80       0.0983
     49  SG        86.6750   -0.1320   84.7830 S.3    80  CYS80      -0.0798
     50  N         83.6860   -1.7750   89.8040 N.3    82  ARG82      -0.1231
     51  CA        82.4930   -1.3750   90.5400 C.3    82  ARG82       0.1694
     52  C         81.4310   -0.8100   89.6040 C.2    82  ARG82       0.2592
     53  O         80.2740   -1.2300   89.6360 O.2    82  ARG82      -0.2718
     54  CB        82.8480   -0.3450   91.6150 C.3    82  ARG82       0.0321
     55  CG        81.7600   -0.1330   92.6550 C.3    82  ARG82       0.0489
     56  CD        81.7090    1.3150   93.1140 C.3    82  ARG82       0.2205
     57  NE        80.9880    2.1630   92.1690 N.pl3  82  ARG82      -0.0865
     58  CZ        81.4860    3.2720   91.6310 C.cat  82  ARG82       0.5346
     59  NH1       80.7590    3.9830   90.7800 N.pl3  82  ARG82       0.1354
     60  NH2       82.7110    3.6720   91.9450 N.pl3  82  ARG82       0.1354
     61  N         81.8310    0.1440   88.7690 N.am   83  ASP83      -0.1960
     62  CA        80.9260    0.7360   87.7920 C.3    83  ASP83       0.1840
     63  C         80.2590   -0.3360   86.9360 C.2    83  ASP83       0.2621
     64  O         79.0860   -0.2220   86.5830 O.2    83  ASP83      -0.2715
     65  CB        81.6740    1.7290   86.9010 C.3    83  ASP83       0.1450
     66  CG        81.6040    3.1500   87.4260 C.2    83  ASP83       0.3671
     67  OD1       81.8210    3.3480   88.6400 O.co2  83  ASP83      -0.2456
     68  OD2       81.3330    4.0690   86.6240 O.co2  83  ASP83      -0.2456
     69  N         81.0160   -1.3780   86.6070 N.am   84  LEU84      -0.1977
     70  CA        80.5140   -2.4510   85.7570 C.3    84  LEU84       0.1596
     71  C         79.5150   -3.3380   86.4820 C.2    84  LEU84       0.2287
     72  O         78.5800   -3.8540   85.8710 O.2    84  LEU84      -0.2864
     73  CB        81.6710   -3.2840   85.2070 C.3    84  LEU84       0.0297
     74  CG        82.3470   -2.7040   83.9570 C.3    84  LEU84       0.0022
     75  CD1       83.5480   -3.5440   83.5870 C.3    84  LEU84       0.0001
     76  CD2       81.3710   -2.6810   82.8040 C.3    84  LEU84       0.0001
     77  N         77.6380   -2.2080   88.7960 N.3    86  TYR86      -0.1227
     78  CA        76.4840   -1.3220   88.9290 C.3    86  TYR86       0.1736
     79  C         75.5380   -1.6360   87.7900 C.2    86  TYR86       0.2595
     80  O         74.3680   -1.9250   88.0050 O.2    86  TYR86      -0.2718
     81  CB        76.9000    0.1510   88.8370 C.3    86  TYR86       0.0548
     82  CG        77.1740    0.8320   90.1720 C.ar   86  TYR86      -0.0200
     83  CD1       77.5530    2.1730   90.2270 C.ar   86  TYR86      -0.0009
     84  CD2       77.0510    0.1370   91.3790 C.ar   86  TYR86      -0.0009
     85  CE1       77.8040    2.7990   91.4500 C.ar   86  TYR86       0.0417
     86  CE2       77.3020    0.7610   92.6090 C.ar   86  TYR86       0.0417
     87  CZ        77.6790    2.0860   92.6350 C.ar   86  TYR86       0.1957
     88  OH        77.9580    2.6880   93.8410 O.3    86  TYR86      -0.2866
     89  N         76.0620   -1.6030   86.5720 N.am   87  TYR87      -0.1976
     90  CA        75.2510   -1.8880   85.4030 C.3    87  TYR87       0.1639
     91  C         74.7190   -3.3150   85.3170 C.2    87  TYR87       0.2290
     92  O         73.6450   -3.5240   84.7760 O.2    87  TYR87      -0.2864
     93  CB        76.0100   -1.5110   84.1280 C.3    87  TYR87       0.0560
     94  CG        76.0190   -0.0180   83.9060 C.ar   87  TYR87      -0.0198
     95  CD1       77.2040    0.7200   83.9780 C.ar   87  TYR87      -0.0009
     96  CD2       74.8250    0.6720   83.6790 C.ar   87  TYR87      -0.0009
     97  CE1       77.1930    2.1060   83.8320 C.ar   87  TYR87       0.0417
     98  CE2       74.8000    2.0560   83.5350 C.ar   87  TYR87       0.0417
     99  CZ        75.9810    2.7630   83.6130 C.ar   87  TYR87       0.1957
    100  OH        75.9460    4.1270   83.4910 O.3    87  TYR87      -0.2866
    101  N         73.6520   -5.0780   87.7750 N.3    89  ARG89      -0.1231
    102  CA        72.4870   -4.9910   88.6520 C.3    89  ARG89       0.1694
    103  C         71.3080   -4.3000   87.9610 C.2    89  ARG89       0.2591
    104  O         70.1630   -4.7170   88.1120 O.2    89  ARG89      -0.2718
    105  CB        72.8480   -4.2510   89.9470 C.3    89  ARG89       0.0321
    106  CG        71.7400   -4.2350   91.0030 C.3    89  ARG89       0.0489
    107  CD        72.0650   -3.2350   92.0940 C.3    89  ARG89       0.2205
    108  NE        72.4460   -1.9570   91.5000 N.pl3  89  ARG89      -0.0865
    109  CZ        72.9070   -0.9100   92.1770 C.cat  89  ARG89       0.5346
    110  NH1       73.0500   -0.9720   93.4890 N.pl3  89  ARG89       0.1354
    111  NH2       73.2470    0.1960   91.5360 N.pl3  89  ARG89       0.1354
    112  N         71.5810   -3.2510   87.1960 N.am   90  LEU90      -0.1980
    113  CA        70.5050   -2.5590   86.5020 C.3    90  LEU90       0.1596
    114  C         69.9460   -3.3900   85.3460 C.2    90  LEU90       0.2287
    115  O         68.8140   -3.1800   84.9120 O.2    90  LEU90      -0.2864
    116  CB        70.9750   -1.1920   85.9980 C.3    90  LEU90       0.0297
    117  CG        71.4110   -0.2170   87.0950 C.3    90  LEU90       0.0022
    118  CD1       71.3200    1.2020   86.5760 C.3    90  LEU90       0.0001
    119  CD2       70.5230   -0.3730   88.3150 C.3    90  LEU90       0.0001
    120  N         67.8470    5.0630   86.4540 N.3   106  ILE106     -0.1231
    121  CA        68.8840    4.8180   87.4400 C.3   106  ILE106      0.1692
    122  C         70.3210    5.0990   86.9820 C.2   106  ILE106      0.2592
    123  O         71.1240    5.6250   87.7630 O.2   106  ILE106     -0.2718
    124  CB        68.7600    3.3760   88.0040 C.3   106  ILE106      0.0266
    125  CG1       67.3680    3.1950   88.6110 C.3   106  ILE106      0.0019
    126  CG2       69.8110    3.1270   89.0670 C.3   106  ILE106      0.0020
    127  CD1       67.1480    1.8760   89.3110 C.3   106  ILE106      0.0001
    128  N         70.6410    4.7820   85.7260 N.am  107  GLY107     -0.1957
    129  CA        71.9940    5.0070   85.2540 C.3   107  GLY107      0.1869
    130  C         72.2360    5.3760   83.8020 C.2   107  GLY107      0.2309
    131  O         73.2120    4.9080   83.2210 O.2   107  GLY107     -0.2863
    132  N         78.1400   12.9830   83.7040 N.3   114  MET114     -0.1230
    133  CA        78.8920   12.4560   84.8430 C.3   114  MET114      0.1702
    134  C         80.2890   12.0280   84.4820 C.2   114  MET114      0.2592
    135  O         81.2560   12.4890   85.0770 O.2   114  MET114     -0.2718
    136  CB        78.2050   11.2460   85.4590 C.3   114  MET114      0.0401
    137  CG        79.0700   10.5710   86.5020 C.3   114  MET114      0.0596
    138  SD        78.3520    9.0900   87.2490 S.3   114  MET114     -0.1393
    139  CE        78.4990    7.9190   85.9160 C.3   114  MET114      0.0692
    140  N         80.3910   11.1220   83.5170 N.am  115  TYR115     -0.1976
    141  CA        81.6890   10.6140   83.1080 C.3   115  TYR115      0.1639
    142  C         82.6410   11.6720   82.5360 C.2   115  TYR115      0.2290
    143  O         83.8530   11.6090   82.7840 O.2   115  TYR115     -0.2864
    144  CB        81.5190    9.4530   82.1180 C.3   115  TYR115      0.0560
    145  CG        81.1810    8.0960   82.7440 C.ar  115  TYR115     -0.0198
    146  CD1       79.8670    7.6370   82.8400 C.ar  115  TYR115     -0.0009
    147  CD2       82.1900    7.2490   83.1960 C.ar  115  TYR115     -0.0009
    148  CE1       79.5810    6.3660   83.3620 C.ar  115  TYR115      0.0417
    149  CE2       81.9110    5.9840   83.7200 C.ar  115  TYR115      0.0417
    150  CZ        80.6140    5.5550   83.7970 C.ar  115  TYR115      0.1957
    151  OH        80.3690    4.3110   84.3130 O.3   115  TYR115     -0.2866
    152  N         84.5580   13.2770   85.0520 N.3   118  LEU118     -0.1245
    153  CA        85.5740   12.3840   85.6030 C.3   118  LEU118      0.1561
    154  C         86.6540   12.0470   84.5970 C.2   118  LEU118      0.2260
    155  O         87.6280   11.3650   84.9330 O.2   118  LEU118     -0.2867
    156  CB        84.9340   11.0840   86.0860 C.3   118  LEU118      0.0270
    157  CG        83.9250   11.1890   87.2210 C.3   118  LEU118      0.0019
    158  CD1       82.7920   10.2450   86.9450 C.3   118  LEU118      0.0001
    159  CD2       84.5750   10.8460   88.5290 C.3   118  LEU118      0.0001
    160  N         86.5760   10.0050   82.0520 N.3   120  THR120     -0.1204
    161  CA        86.6430    8.6090   81.6540 C.3   120  THR120      0.1979
    162  C         86.0330    8.3940   80.2780 C.2   120  THR120      0.2459
    163  O         84.9640    8.9320   79.9630 O.2   120  THR120     -0.2732
    164  CB        85.9350    7.7190   82.6930 C.3   120  THR120      0.1783
    165  OG1       85.3960    6.5500   82.0620 O.3   120  THR120     -0.2211
    166  CG2       84.8520    8.5020   83.3880 C.3   120  THR120      0.0376
    167  N         86.7180    7.6140   79.4300 N.am  121  PRO121     -0.2728
    168  CA        86.2380    7.3290   78.0770 C.3   121  PRO121      0.1401
    169  C         84.9450    6.5410   78.1070 C.2   121  PRO121      0.2269
    170  O         84.8890    5.4800   78.7210 O.2   121  PRO121     -0.2865
    171  CB        87.3880    6.5310   77.4650 C.3   121  PRO121      0.0296
    172  CG        87.9480    5.8130   78.6400 C.3   121  PRO121      0.0237
    173  CD        87.9750    6.8960   79.6980 C.3   121  PRO121      0.0939
    174  N         84.9880    3.3270   76.0430 N.3   124  ALA124     -0.1231
    175  CA        85.7020    2.2990   76.7810 C.3   124  ALA124      0.1694
    176  C         84.7290    1.6170   77.7240 C.2   124  ALA124      0.2591
    177  O         84.7830    0.4020   77.9120 O.2   124  ALA124     -0.2718
    178  CB        86.8570    2.9100   77.5670 C.3   124  ALA124      0.0304
    179  N         83.8410    2.4090   78.3170 N.am  125  VAL125     -0.1980
    180  CA        82.8550    1.8780   79.2450 C.3   125  VAL125      0.1595
    181  C         81.9200    0.9850   78.4650 C.2   125  VAL125      0.2287
    182  O         81.5480   -0.0850   78.9370 O.2   125  VAL125     -0.2864
    183  CB        82.0310    3.0000   79.9180 C.3   125  VAL125      0.0276
    184  CG1       80.9500    2.4000   80.7820 C.3   125  VAL125      0.0022
    185  CG2       82.9390    3.8820   80.7660 C.3   125  VAL125      0.0022
    186  N         83.0790   -2.2710   78.0930 N.3   128  GLY128     -0.1225
    187  CA        83.0630   -2.9650   79.3730 C.3   128  GLY128      0.1811
    188  C         81.7220   -3.6300   79.6260 C.2   128  GLY128      0.2280
    189  O         81.6320   -4.6520   80.2970 O.2   128  GLY128     -0.2866
@<TRIPOS>BOND
     1   174   175    1
     2   175   178    1
     3   175   176    1
     4   171   168    1
     5   171   172    1
     6     4     3    2
     7   176   177    2
     8   176   179   am
     9     7     6    1
    10   168   169    1
    11   168   167    1
    12   186   187    1
    13   169   170    2
    14   179   180    1
    15   181   182    2
    16   181   180    1
    17     2     3    1
    18     2     1    1
    19     2     5    1
    20   172   173    1
    21    15    13    1
    22     9    10    1
    23   180   183    1
    24     6     5    1
    25     6     8    1
    26   187   188    1
    27   167   173    1
    28   167   162   am
    29   188   189    2
    30   183   185    1
    31   183   184    1
    32   163   162    2
    33   162   161    1
    34    13    10    1
    35    13    14    1
    36    10    11    1
    37   161   160    1
    38   161   164    1
    39    11    12    2
    40   165   164    1
    41   144   145    1
    42   144   141    1
    43   142   143    2
    44   142   141    1
    45   164   166    1
    46   145   146   ar
    47   145   147   ar
    48    76    74    1
    49   146   148   ar
    50    16    17    1
    51   141   140    1
    52   147   149   ar
    53   131   130    2
    54   148   150   ar
    55   100    99    1
    56   140   134   am
    57    98    99   ar
    58    98    96   ar
    59    75    74    1
    60    99    97   ar
    61    96    94   ar
    62    20    17    1
    63    20    21    1
    64   132   133    1
    65   149   150   ar
    66   150   151    1
    67   130   129    1
    68    97    95   ar
    69    94    95   ar
    70    94    93    1
    71    74    73    1
    72    17    18    1
    73    93    90    1
    74   134   133    1
    75   134   135    2
    76    21    22    2
    77    21    23   am
    78   154   155    2
    79   154   153    1
    80    92    91    2
    81    49    48    1
    82   133   136    1
    83    24    18   am
    84    24    25    1
    85   115   114    2
    86   152   153    1
    87    18    19    2
    88    73    70    1
    89    27    26    2
    90   129   128    1
    91    91    90    1
    92   114   113    1
    93    90    89    1
    94   136   137    1
    95    28    25    1
    96   153   156    1
    97   128   122   am
    98    70    71    1
    99    70    69    1
   100    25    26    1
   101    72    71    2
   102   139   138    1
   103   116   113    1
   104   116   117    1
   105   156   157    1
   106    48    45    1
   107   120   121    1
   108   137   138    1
   109   113   112    1
   110    89    79   am
   111   118   117    1
   112    64    63    2
   113    69    63   am
   114    68    66   ar
   115    47    46    2
   116    65    66    1
   117    65    62    1
   118    63    62    1
   119   158   157    1
   120   122   121    1
   121   122   123    2
   122   117   119    1
   123   112   103   am
   124   157   159    1
   125    46    45    1
   126    45    44    1
   127    66    67   ar
   128   121   124    1
   129   101   102    1
   130    79    80    2
   131    79    78    1
   132    62    61    1
   133   103   104    2
   134   103   102    1
   135   124   125    1
   136   124   126    1
   137   125   127    1
   138   102   105    1
   139    44    39   am
   140    61    52   am
   141    77    78    1
   142    81    78    1
   143    81    82    1
   144    33    34    1
   145    33    30    1
   146    32    31    2
   147    40    39    2
   148    31    30    1
   149    52    53    2
   150    52    51    1
   151    39    38    1
   152    34    35    1
   153    50    51    1
   154   105   106    1
   155    42    41    1
   156    82    83   ar
   157    82    84   ar
   158    30    29    1
   159    83    85   ar
   160    35    36    1
   161    51    54    1
   162    59    58    1
   163   106   107    1
   164    38    37    1
   165    38    41    1
   166    41    43    1
   167    84    86   ar
   168    85    87   ar
   169   108   107    1
   170   108   109    2
   171   111   109    1
   172    54    55    1
   173    58    60    1
   174    58    57    2
   175    57    56    1
   176   109   110    1
   177    86    87   ar
   178    87    88    1
   179    55    56    1
