@<TRIPOS>MOLECULE
tmp/3dbmA01.pdb
 192 187 0 0 0
SMALL
GASTEIGER

@<TRIPOS>ATOM
      1  N         62.5300   40.0100   14.1330 N.3    24  TYR24      -0.1241
      2  CA        61.4080   39.1940   14.6010 C.3    24  TYR24       0.1605
      3  C         60.6260   38.5960   13.4320 C.2    24  TYR24       0.2264
      4  O         60.1910   37.4380   13.4790 O.2    24  TYR24      -0.2867
      5  CB        60.4630   40.0650   15.4410 C.3    24  TYR24       0.0534
      6  CG        59.2690   39.3620   16.0690 C.ar   24  TYR24      -0.0201
      7  CD1       59.3340   38.8570   17.3720 C.ar   24  TYR24      -0.0009
      8  CD2       58.0540   39.2640   15.3900 C.ar   24  TYR24      -0.0009
      9  CE1       58.2130   38.2840   17.9870 C.ar   24  TYR24       0.0417
     10  CE2       56.9290   38.6930   15.9950 C.ar   24  TYR24       0.0417
     11  CZ        57.0160   38.2090   17.2950 C.ar   24  TYR24       0.1957
     12  OH        55.9040   37.6670   17.9080 O.3    24  TYR24      -0.2866
     13  N         60.5300   33.9880   14.7950 N.3    31  ARG31      -0.1245
     14  CA        60.4450   34.6530   16.0830 C.3    31  ARG31       0.1563
     15  C         60.9260   33.7610   17.2230 C.2    31  ARG31       0.2260
     16  O         61.3180   34.2520   18.2850 O.2    31  ARG31      -0.2867
     17  CB        59.0050   35.1110   16.3190 C.3    31  ARG31       0.0307
     18  CG        58.0210   33.9760   16.5140 C.3    31  ARG31       0.0489
     19  CD        56.5880   34.4760   16.5400 C.3    31  ARG31       0.2205
     20  NE        56.1730   35.1160   15.2910 N.pl3  31  ARG31      -0.0865
     21  CZ        54.9580   35.6300   15.0960 C.cat  31  ARG31       0.5346
     22  NH1       54.0580   35.5640   16.0680 N.pl3  31  ARG31       0.1354
     23  NH2       54.6420   36.2300   13.9510 N.pl3  31  ARG31       0.1354
     24  N         45.6820   43.1920   25.4880 N.3    87  PHE87      -0.1241
     25  CA        45.2200   41.8850   25.0200 C.3    87  PHE87       0.1605
     26  C         46.1120   41.4840   23.8450 C.2    87  PHE87       0.2264
     27  O         46.4730   40.3110   23.6690 O.2    87  PHE87      -0.2867
     28  CB        43.7440   41.9820   24.5900 C.3    87  PHE87       0.0534
     29  CG        43.1930   40.7150   23.9940 C.ar   87  PHE87      -0.0203
     30  CD1       43.2220   39.5270   24.7060 C.ar   87  PHE87      -0.0042
     31  CD2       42.6240   40.7180   22.7190 C.ar   87  PHE87      -0.0042
     32  CE1       42.6890   38.3660   24.1620 C.ar   87  PHE87      -0.0003
     33  CE2       42.0920   39.5580   22.1720 C.ar   87  PHE87      -0.0003
     34  CZ        42.1230   38.3840   22.8930 C.ar   87  PHE87      -0.0000
     35  N         35.5210   37.1530    8.9090 N.3   193  ILE193     -0.1231
     36  CA        36.2370   37.1920   10.1780 C.3   193  ILE193      0.1692
     37  C         37.7290   37.4060    9.9970 C.2   193  ILE193      0.2592
     38  O         38.3490   38.1580   10.7480 O.2   193  ILE193     -0.2718
     39  CB        35.9810   35.8850   10.9650 C.3   193  ILE193      0.0266
     40  CG1       34.4930   35.7740   11.2790 C.3   193  ILE193      0.0019
     41  CG2       36.7910   35.8580   12.2370 C.3   193  ILE193      0.0020
     42  CD1       34.0930   34.4480   11.7860 C.3   193  ILE193      0.0001
     43  N         38.3060   36.7500    9.0000 N.am  194  SER194     -0.1952
     44  CA        39.7300   36.9060    8.7450 C.3   194  SER194      0.1924
     45  C         39.9580   38.3370    8.3370 C.2   194  SER194      0.2314
     46  O         40.7240   39.0560    8.9570 O.2   194  SER194     -0.2863
     47  CB        40.1840   35.9890    7.6100 C.3   194  SER194      0.2116
     48  OG        40.0240   34.6270    7.9530 O.3   194  SER194     -0.2180
     49  N         39.7500   40.4350   11.3080 N.3   197  VAL197     -0.1231
     50  CA        40.8060   40.2510   12.2910 C.3   197  VAL197      0.1692
     51  C         42.1160   40.8000   11.7420 C.2   197  VAL197      0.2591
     52  O         42.9170   41.3850   12.4780 O.2   197  VAL197     -0.2718
     53  CB        40.9710   38.7650   12.6710 C.3   197  VAL197      0.0266
     54  CG1       42.2980   38.5460   13.3770 C.3   197  VAL197      0.0020
     55  CG2       39.8260   38.3450   13.5840 C.3   197  VAL197      0.0020
     56  N         42.3240   40.6280   10.4410 N.am  198  LEU198     -0.1980
     57  CA        43.5350   41.1180    9.8100 C.3   198  LEU198      0.1596
     58  C         43.6690   42.6000   10.0820 C.2   198  LEU198      0.2287
     59  O         44.7310   43.0700   10.4820 O.2   198  LEU198     -0.2864
     60  CB        43.5050   40.8700    8.3080 C.3   198  LEU198      0.0297
     61  CG        44.6210   41.5600    7.5140 C.3   198  LEU198      0.0022
     62  CD1       45.9800   41.3840    8.1920 C.3   198  LEU198      0.0001
     63  CD2       44.6300   40.9930    6.1070 C.3   198  LEU198      0.0001
     64  N         44.8470   42.8720   13.9500 N.3   201  LEU201     -0.1245
     65  CA        46.1740   42.3430   14.2420 C.3   201  LEU201      0.1561
     66  C         47.2710   42.6410   13.2240 C.2   201  LEU201      0.2260
     67  O         48.4480   42.3590   13.4760 O.2   201  LEU201     -0.2867
     68  CB        46.0700   40.8220   14.4660 C.3   201  LEU201      0.0270
     69  CG        45.1490   40.3060   15.5920 C.3   201  LEU201      0.0019
     70  CD1       45.1410   38.7850   15.6260 C.3   201  LEU201      0.0001
     71  CD2       45.6200   40.8280   16.9250 C.3   201  LEU201      0.0001
     72  N         51.1050   43.1520   14.0110 N.3   204  THR204     -0.1203
     73  CA        51.9780   42.1320   14.5910 C.3   204  THR204      0.1994
     74  C         51.8150   40.7870   13.9320 C.2   204  THR204      0.2617
     75  O         52.2350   39.7670   14.4790 O.2   204  THR204     -0.2717
     76  CB        51.7600   41.9600   16.1260 C.3   204  THR204      0.1784
     77  OG1       50.3680   41.7610   16.3980 O.3   204  THR204     -0.2211
     78  CG2       52.2660   43.1830   16.8860 C.3   204  THR204      0.0376
     79  N         51.2060   40.7960   12.7480 N.am  205  LEU205     -0.1979
     80  CA        50.9820   39.5670   11.9860 C.3   205  LEU205      0.1596
     81  C         51.9970   39.3680   10.8640 C.2   205  LEU205      0.2287
     82  O         52.2850   40.2990   10.1150 O.2   205  LEU205     -0.2864
     83  CB        49.5820   39.5680   11.3630 C.3   205  LEU205      0.0297
     84  CG        48.3440   39.3230   12.2310 C.3   205  LEU205      0.0022
     85  CD1       47.0740   39.5470   11.4110 C.3   205  LEU205      0.0001
     86  CD2       48.3730   37.8990   12.7780 C.3   205  LEU205      0.0001
     87  N         52.3880   37.5170    7.4950 N.3   207  LEU207     -0.1245
     88  CA        51.6020   36.7930    6.5190 C.3   207  LEU207      0.1561
     89  C         52.5610   36.0380    5.6010 C.2   207  LEU207      0.2260
     90  O         52.1510   35.3940    4.6410 O.2   207  LEU207     -0.2867
     91  CB        50.7400   37.7670    5.7110 C.3   207  LEU207      0.0270
     92  CG        49.7440   38.6310    6.5070 C.3   207  LEU207      0.0019
     93  CD1       48.9870   39.5560    5.5660 C.3   207  LEU207      0.0001
     94  CD2       48.7770   37.7470    7.2730 C.3   207  LEU207      0.0001
     95  N         36.4070   36.5310   17.3230 N.3   270  PHE270     -0.1227
     96  CA        37.8110   36.7350   17.6600 C.3   270  PHE270      0.1736
     97  C         38.3350   35.6950   18.6520 C.2   270  PHE270      0.2595
     98  O         39.2770   34.9620   18.3540 O.2   270  PHE270     -0.2718
     99  CB        37.9990   38.1470   18.2300 C.3   270  PHE270      0.0547
    100  CG        39.3960   38.6840   18.0780 C.ar  270  PHE270     -0.0202
    101  CD1       39.6590   39.7430   17.2060 C.ar  270  PHE270     -0.0042
    102  CD2       40.4510   38.1350   18.8000 C.ar  270  PHE270     -0.0042
    103  CE1       40.9510   40.2510   17.0540 C.ar  270  PHE270     -0.0003
    104  CE2       41.7460   38.6340   18.6550 C.ar  270  PHE270     -0.0003
    105  CZ        41.9940   39.6970   17.7770 C.ar  270  PHE270     -0.0000
    106  N         37.7240   35.6280   19.8300 N.am  271  ASN271     -0.1974
    107  CA        38.1590   34.6730   20.8380 C.3   271  ASN271      0.1688
    108  C         37.9170   33.2140   20.4260 C.2   271  ASN271      0.2292
    109  O         38.8650   32.4800   20.1340 O.2   271  ASN271     -0.2864
    110  CB        37.4720   34.9650   22.1800 C.3   271  ASN271      0.1181
    111  CG        37.9660   36.2590   22.8310 C.2   271  ASN271      0.2629
    112  OD1       39.1460   36.3960   23.1520 O.2   271  ASN271     -0.2716
    113  ND2       37.0560   37.2100   23.0280 N.am  271  ASN271     -0.0877
    114  N         36.3310   31.4930   17.6140 N.3   273  PHE273     -0.1227
    115  CA        36.7400   31.1770   16.2460 C.3   273  PHE273      0.1736
    116  C         38.2370   31.2870   16.0150 C.2   273  PHE273      0.2596
    117  O         38.8620   30.3580   15.5210 O.2   273  PHE273     -0.2718
    118  CB        36.0220   32.0950   15.2490 C.3   273  PHE273      0.0547
    119  CG        36.2810   31.7430   13.8130 C.ar  273  PHE273     -0.0202
    120  CD1       35.5470   30.7390   13.1870 C.ar  273  PHE273     -0.0042
    121  CD2       37.2930   32.3890   13.0950 C.ar  273  PHE273     -0.0042
    122  CE1       35.8130   30.3820   11.8670 C.ar  273  PHE273     -0.0003
    123  CE2       37.5700   32.0390   11.7760 C.ar  273  PHE273     -0.0003
    124  CZ        36.8260   31.0320   11.1610 C.ar  273  PHE273     -0.0000
    125  N         38.8100   32.4320   16.3550 N.am  274  GLY274     -0.1942
    126  CA        40.2340   32.6070   16.1530 C.3   274  GLY274      0.2014
    127  C         41.0320   31.4820   16.7750 C.2   274  GLY274      0.2639
    128  O         42.0040   30.9980   16.2030 O.2   274  GLY274     -0.2714
    129  N         40.6140   31.0600   17.9590 N.am  275  GLY275     -0.1954
    130  CA        41.3130   29.9920   18.6420 C.3   275  GLY275      0.1869
    131  C         41.1600   28.6240   18.0100 C.2   275  GLY275      0.2309
    132  O         42.1380   27.8890   17.8720 O.2   275  GLY275     -0.2863
    133  N         40.3780   28.0110   14.9510 N.3   277  LYS277     -0.1231
    134  CA        40.9620   28.0660   13.6080 C.3   277  LYS277      0.1693
    135  C         42.3930   27.5200   13.6590 C.2   277  LYS277      0.2591
    136  O         42.9450   27.0560   12.6540 O.2   277  LYS277     -0.2718
    137  CB        40.9830   29.5150   13.0930 C.3   277  LYS277      0.0285
    138  CG        41.7860   29.6950   11.8040 C.3   277  LYS277      0.0035
    139  CD        41.7150   31.1170   11.2320 C.3   277  LYS277      0.0206
    140  CE        42.5480   31.2240    9.9440 C.3   277  LYS277      0.1093
    141  NZ        42.4840   32.5700    9.2950 N.3   277  LYS277     -0.1314
    142  N         42.9760   27.5690   14.8510 N.am  278  ILE278     -0.1980
    143  CA        44.3320   27.1100   15.0650 C.3   278  ILE278      0.1595
    144  C         44.4190   25.7680   15.7910 C.2   278  ILE278      0.2287
    145  O         44.9900   24.8100   15.2590 O.2   278  ILE278     -0.2864
    146  CB        45.1000   28.1810   15.8390 C.3   278  ILE278      0.0276
    147  CG1       45.1780   29.4320   14.9730 C.3   278  ILE278      0.0022
    148  CG2       46.4820   27.7020   16.1940 C.3   278  ILE278      0.0022
    149  CD1       45.7490   30.6420   15.6660 C.3   278  ILE278      0.0001
    150  N         47.8920   27.6180   21.2740 N.3   338  PRO338     -0.2102
    151  CA        47.2080   28.3250   20.1830 C.3   338  PRO338      0.1504
    152  C         47.4340   29.8460   20.1490 C.2   338  PRO338      0.2576
    153  O         47.4830   30.4480   19.0660 O.2   338  PRO338     -0.2718
    154  CB        45.7430   27.9640   20.4150 C.3   338  PRO338      0.0282
    155  CG        45.8290   26.5730   21.0160 C.3   338  PRO338      0.0208
    156  CD        46.9600   26.7340   22.0010 C.3   338  PRO338      0.0893
    157  N         47.5620   30.4470   21.3370 N.am  339  VAL339     -0.1967
    158  CA        47.7760   31.8880   21.5010 C.3   339  VAL339      0.1712
    159  C         49.0130   32.0880   22.4010 C.2   339  VAL339      0.2458
    160  O         48.9010   32.2320   23.6350 O.2   339  VAL339     -0.2730
    161  CB        46.5260   32.5560   22.1500 C.3   339  VAL339      0.0289
    162  CG1       46.7810   34.0410   22.3740 C.3   339  VAL339      0.0023
    163  CG2       45.3120   32.3710   21.2570 C.3   339  VAL339      0.0023
    164  N         50.2090   32.1160   21.7810 N.am  340  PRO340     -0.2716
    165  CA        51.5520   32.2710   22.3710 C.3   340  PRO340      0.1521
    166  C         51.9330   33.4240   23.3270 C.2   340  PRO340      0.2440
    167  O         52.5440   33.1860   24.3800 O.2   340  PRO340     -0.2731
    168  CB        52.4760   32.2540   21.1400 C.3   340  PRO340      0.0310
    169  CG        51.6870   31.5120   20.1070 C.3   340  PRO340      0.0237
    170  CD        50.3040   32.0470   20.3110 C.3   340  PRO340      0.0939
    171  N         51.5910   34.6770   22.9740 N.am  341  PRO341     -0.2727
    172  CA        51.9290   35.8470   23.8000 C.3   341  PRO341      0.1402
    173  C         51.0210   36.3760   24.9180 C.2   341  PRO341      0.2269
    174  O         49.8660   36.7290   24.6880 O.2   341  PRO341     -0.2865
    175  CB        52.1750   36.9140   22.7480 C.3   341  PRO341      0.0296
    176  CG        51.0820   36.6050   21.7380 C.3   341  PRO341      0.0237
    177  CD        51.1320   35.0920   21.6330 C.3   341  PRO341      0.0939
    178  N         51.0880   30.6370    7.7470 N.3   453  PRO453     -0.2102
    179  CA        51.1920   31.4880    8.9340 C.3   453  PRO453      0.1504
    180  C         50.1980   31.0800   10.0320 C.2   453  PRO453      0.2575
    181  O         50.3460   31.4600   11.1960 O.2   453  PRO453     -0.2718
    182  CB        50.9120   32.8810    8.3740 C.3   453  PRO453      0.0282
    183  CG        49.9810   32.6080    7.2360 C.3   453  PRO453      0.0208
    184  CD        50.6390   31.4220    6.5830 C.3   453  PRO453      0.0893
    185  N         49.1850   30.3070    9.6510 N.am  454  LEU454     -0.1980
    186  CA        48.1760   29.8370   10.5970 C.3   454  LEU454      0.1596
    187  C         48.7950   28.7580   11.4750 C.2   454  LEU454      0.2287
    188  O         48.5760   28.7260   12.6840 O.2   454  LEU454     -0.2864
    189  CB        46.9690   29.2630    9.8460 C.3   454  LEU454      0.0297
    190  CG        45.6670   29.0040   10.6200 C.3   454  LEU454      0.0022
    191  CD1       44.6020   28.5710    9.6230 C.3   454  LEU454      0.0001
    192  CD2       45.8490   27.9390   11.7010 C.3   454  LEU454      0.0001
@<TRIPOS>BOND
     1    90    89    2
     2    93    92    1
     3    89    88    1
     4    91    92    1
     5    91    88    1
     6    63    61    1
     7    92    94    1
     8    88    87    1
     9   184   183    1
    10   184   178    1
    11   183   182    1
    12    61    62    1
    13    61    60    1
    14    47    48    1
    15    47    44    1
    16   178   179    1
    17    60    57    1
    18    45    44    1
    19    45    46    2
    20   182   179    1
    21    44    43    1
    22    35    36    1
    23   179   180    1
    24    43    37   am
    25   141   140    1
    26   191   190    1
    27   185   180   am
    28   185   186    1
    29    57    58    1
    30    57    56    1
    31   189   186    1
    32   189   190    1
    33   140   139    1
    34    37    36    1
    35    37    38    2
    36   180   181    2
    37    58    59    2
    38    82    81    2
    39    36    39    1
    40    56    51   am
    41   186   187    1
    42   190   192    1
    43    81    80    1
    44    39    40    1
    45    39    41    1
    46   124   123   ar
    47   124   122   ar
    48   139   138    1
    49    40    42    1
    50    49    50    1
    51    83    80    1
    52    83    84    1
    53    85    84    1
    54   187   188    2
    55    51    50    1
    56    51    52    2
    57   123   121   ar
    58   138   137    1
    59   122   120   ar
    60    80    79    1
    61    84    86    1
    62    50    53    1
    63   136   135    2
    64    53    54    1
    65    53    55    1
    66    79    74   am
    67   137   134    1
    68   121   119   ar
    69   120   119   ar
    70    66    67    2
    71    66    65    1
    72     3     4    2
    73     3     2    1
    74   134   135    1
    75   134   133    1
    76   135   142   am
    77   119   118    1
    78    74    75    2
    79    74    73    1
    80    64    65    1
    81    23    21    1
    82    72    73    1
    83     1     2    1
    84    65    68    1
    85    68    69    1
    86    73    76    1
    87     2     5    1
    88    13    14    1
    89   142   143    1
    90   147   149    1
    91   147   146    1
    92   143   144    1
    93   143   146    1
    94    21    20    2
    95    21    22    1
    96   118   115    1
    97   145   144    2
    98    20    19    1
    99     8    10   ar
   100     8     6   ar
   101     5     6    1
   102   117   116    2
   103    69    70    1
   104    69    71    1
   105   146   148    1
   106    10    11   ar
   107   116   115    1
   108   116   125   am
   109     6     7   ar
   110    14    17    1
   111    14    15    1
   112    76    77    1
   113    76    78    1
   114   126   125    1
   115   126   127    1
   116   128   127    2
   117   115   114    1
   118    17    18    1
   119    18    19    1
   120   127   129   am
   121   103   101   ar
   122   103   105   ar
   123   101   100   ar
   124    15    16    2
   125    11    12    1
   126    11     9   ar
   127    95    96    1
   128     7     9   ar
   129    96    99    1
   130    96    97    1
   131   105   104   ar
   132   132   131    2
   133   129   130    1
   134   131   130    1
   135   100    99    1
   136   100   102   ar
   137    98    97    2
   138    97   106   am
   139   104   102   ar
   140   153   152    2
   141   106   107    1
   142   169   170    1
   143   169   168    1
   144   109   108    2
   145   152   151    1
   146   152   157   am
   147   151   154    1
   148   151   150    1
   149   170   164    1
   150   154   155    1
   151   108   107    1
   152   107   110    1
   153   155   156    1
   154   168   165    1
   155   163   161    1
   156   150   156    1
   157   157   158    1
   158   158   161    1
   159   158   159    1
   160   177   176    1
   161   177   171    1
   162   176   175    1
   163   164   165    1
   164   164   159   am
   165   161   162    1
   166    33    31   ar
   167    33    34   ar
   168   110   111    1
   169   165   166    1
   170   159   160    2
   171    31    29   ar
   172   175   172    1
   173   111   113   am
   174   111   112    2
   175    34    32   ar
   176   171   166   am
   177   171   172    1
   178   166   167    2
   179    27    26    2
   180   172   173    1
   181    26    25    1
   182    29    28    1
   183    29    30   ar
   184    32    30   ar
   185    28    25    1
   186   174   173    2
   187    25    24    1
