@<TRIPOS>MOLECULE
tmp/3dbsA00.pdb
 219 206 0 0 0
SMALL
GASTEIGER

@<TRIPOS>ATOM
      1  N         14.3640   61.1070   11.5620 N.3   565  LYS565     -0.1231
      2  CA        14.9550   62.3140   10.9880 C.3   565  LYS565      0.1693
      3  C         16.4950   62.3130   10.9620 C.2   565  LYS565      0.2592
      4  O         17.1400   61.6250   11.7380 O.2   565  LYS565     -0.2718
      5  CB        14.4450   63.5430   11.7480 C.3   565  LYS565      0.0285
      6  CG        14.5980   63.4590   13.2670 C.3   565  LYS565      0.0035
      7  CD        13.8900   64.6300   13.9490 C.3   565  LYS565      0.0206
      8  CE        14.1120   64.6480   15.4520 C.3   565  LYS565      0.1093
      9  NZ        15.5200   64.9980   15.7690 N.3   565  LYS565     -0.1314
     10  N         17.0730   63.0920   10.0530 N.am  566  VAL566     -0.1966
     11  CA        18.5050   63.3890   10.0870 C.3   566  VAL566      0.1727
     12  C         18.6830   64.4380   11.1720 C.2   566  VAL566      0.2616
     13  O         17.8260   65.2960   11.3350 O.2   566  VAL566     -0.2715
     14  CB        19.0250   63.9790    8.7510 C.3   566  VAL566      0.0290
     15  CG1       20.5200   64.3100    8.8440 C.3   566  VAL566      0.0023
     16  CG2       18.7390   63.0410    7.5770 C.3   566  VAL566      0.0023
     17  N         19.7930   64.3900   11.9000 N.am  567  MET567     -0.1963
     18  CA        19.9780   65.2670   13.0480 C.3   567  MET567      0.1736
     19  C         20.8130   66.4960   12.7090 C.2   567  MET567      0.2616
     20  O         21.9460   66.3790   12.2790 O.2   567  MET567     -0.2715
     21  CB        20.6080   64.4870   14.1950 C.3   567  MET567      0.0427
     22  CG        19.5800   63.6980   14.9920 C.3   567  MET567      0.0599
     23  SD        20.2680   62.5080   16.1440 S.3   567  MET567     -0.1393
     24  CE        20.8390   63.5350   17.4030 C.3   567  MET567      0.0692
     25  N         20.2280   67.6710   12.9060 N.am  568  ALA568     -0.1963
     26  CA        20.9160   68.9500   12.7330 C.3   568  ALA568      0.1728
     27  C         22.1060   69.0910   13.6870 C.2   568  ALA568      0.2616
     28  O         22.0740   69.8820   14.6400 O.2   568  ALA568     -0.2715
     29  CB        19.9250   70.1060   12.9260 C.3   568  ALA568      0.0334
     30  N         23.1660   68.3440   13.3920 N.am  569  SER569     -0.1950
     31  CA        24.2820   68.1570   14.3190 C.3   569  SER569      0.1924
     32  C         25.5940   67.7980   13.5970 C.2   569  SER569      0.2314
     33  O         25.7490   68.0660   12.3990 O.2   569  SER569     -0.2863
     34  CB        23.9180   67.1010   15.3780 C.3   569  SER569      0.2116
     35  OG        24.2110   65.7840   14.9380 O.3   569  SER569     -0.2180
     36  N         24.0240   62.1400   11.9640 N.3   573  PRO573     -0.2116
     37  CA        23.4050   60.9130   12.4650 C.3   573  PRO573      0.1372
     38  C         21.8940   60.8450   12.2450 C.2   573  PRO573      0.2244
     39  O         21.2280   61.8720   12.2410 O.2   573  PRO573     -0.2868
     40  CB        23.6990   60.9620   13.9690 C.3   573  PRO573      0.0268
     41  CG        24.0490   62.3790   14.2770 C.3   573  PRO573      0.0207
     42  CD        24.6350   62.9280   13.0500 C.3   573  PRO573      0.0892
     43  N         18.3330   60.0280   13.7200 N.3   575  TRP575     -0.1241
     44  CA        17.4130   59.7570   14.8170 C.3   575  TRP575      0.1605
     45  C         16.3140   58.8500   14.2670 C.2   575  TRP575      0.2264
     46  O         15.4520   59.2940   13.5410 O.2   575  TRP575     -0.2867
     47  CB        16.8450   61.0860   15.3210 C.3   575  TRP575      0.0550
     48  CG        15.8430   61.0450   16.4380 C.ar  575  TRP575      0.0003
     49  CD1       14.5560   60.5980   16.3750 C.ar  575  TRP575      0.0946
     50  CD2       16.0270   61.5460   17.7680 C.ar  575  TRP575      0.0152
     51  NE1       13.9390   60.7590   17.5930 N.ar  575  TRP575     -0.2442
     52  CE2       14.8170   61.3430   18.4660 C.ar  575  TRP575      0.0810
     53  CE3       17.1040   62.1280   18.4540 C.ar  575  TRP575      0.0012
     54  CZ2       14.6500   61.6990   19.8100 C.ar  575  TRP575      0.0191
     55  CZ3       16.9360   62.4860   19.7930 C.ar  575  TRP575      0.0001
     56  CH2       15.7150   62.2710   20.4530 C.ar  575  TRP575      0.0015
     57  N         19.7630   56.2170   17.6920 N.3   594  ILE594     -0.1245
     58  CA        20.5700   57.0730   16.8370 C.3   594  ILE594      0.1561
     59  C         21.5380   56.1910   16.0550 C.2   594  ILE594      0.2260
     60  O         22.1270   55.2870   16.6280 O.2   594  ILE594     -0.2867
     61  CB        21.3440   58.0940   17.7040 C.3   594  ILE594      0.0252
     62  CG1       20.4150   59.2420   18.1020 C.3   594  ILE594      0.0019
     63  CG2       22.6090   58.6250   16.9900 C.3   594  ILE594      0.0019
     64  CD1       20.8690   60.0020   19.3020 C.3   594  ILE594      0.0001
     65  N         25.0060   56.7520   13.8860 N.3   596  LYS596     -0.1245
     66  CA        26.0010   57.7730   13.5960 C.3   596  LYS596      0.1561
     67  C         27.1440   57.1160   12.8650 C.2   596  LYS596      0.2260
     68  O         27.5410   56.0190   13.2150 O.2   596  LYS596     -0.2867
     69  CB        26.4710   58.4550   14.8990 C.3   596  LYS596      0.0271
     70  CG        27.7540   59.3200   14.8190 C.3   596  LYS596      0.0035
     71  CD        27.5030   60.7750   14.4630 C.3   596  LYS596      0.0206
     72  CE        27.7570   61.7320   15.6440 C.3   596  LYS596      0.1093
     73  NZ        27.2190   63.1670   15.4930 N.3   596  LYS596     -0.1314
     74  N         32.1770   59.6680   14.4100 N.3   599  ASP599     -0.1239
     75  CA        32.9050   59.5700   15.6860 C.3   599  ASP599      0.1674
     76  C         33.4630   58.1370   15.8800 C.2   599  ASP599      0.2266
     77  O         33.1140   57.2240   15.1100 O.2   599  ASP599     -0.2867
     78  CB        31.9850   59.9700   16.8730 C.3   599  ASP599      0.1410
     79  CG        31.7400   61.5070   16.9740 C.2   599  ASP599      0.3668
     80  OD1       32.6440   62.3060   16.6190 O.co2 599  ASP599     -0.2456
     81  OD2       30.6740   62.0050   17.4220 O.co2 599  ASP599     -0.2456
     82  N         33.1840   55.1620   18.3480 N.3   601  LEU601     -0.1245
     83  CA        32.2210   54.7490   19.3670 C.3   601  LEU601      0.1561
     84  C         32.7470   53.7000   20.3350 C.2   601  LEU601      0.2260
     85  O         32.1600   53.5020   21.3890 O.2   601  LEU601     -0.2867
     86  CB        30.9540   54.2220   18.6890 C.3   601  LEU601      0.0270
     87  CG        29.6900   55.0870   18.6500 C.3   601  LEU601      0.0019
     88  CD1       29.9190   56.6040   18.6580 C.3   601  LEU601      0.0001
     89  CD2       28.9100   54.6650   17.4310 C.3   601  LEU601      0.0001
     90  N         33.2650   55.3430   23.4740 N.3   604  ASP604     -0.1239
     91  CA        32.0270   55.5260   24.2170 C.3   604  ASP604      0.1674
     92  C         31.6030   54.2190   24.8650 C.2   604  ASP604      0.2266
     93  O         31.2380   54.2080   26.0250 O.2   604  ASP604     -0.2867
     94  CB        30.9210   56.0640   23.3290 C.3   604  ASP604      0.1410
     95  CG        31.2390   57.4430   22.7820 C.2   604  ASP604      0.3668
     96  OD1       32.2210   57.5570   22.0130 O.co2 604  ASP604     -0.2456
     97  OD2       30.5830   58.4620   23.0670 O.co2 604  ASP604     -0.2456
     98  N         23.5500   54.8290   29.0560 N.3   630  TYR630     -0.1241
     99  CA        22.6730   54.3670   27.9880 C.3   630  TYR630      0.1605
    100  C         23.4140   53.4060   27.0730 C.2   630  TYR630      0.2264
    101  O         24.6370   53.4170   27.0190 O.2   630  TYR630     -0.2867
    102  CB        22.1740   55.5690   27.1760 C.3   630  TYR630      0.0534
    103  CG        23.3040   56.4720   26.7320 C.ar  630  TYR630     -0.0201
    104  CD1       23.9900   56.2340   25.5460 C.ar  630  TYR630     -0.0009
    105  CD2       23.7140   57.5300   27.5230 C.ar  630  TYR630     -0.0009
    106  CE1       25.0310   57.0370   25.1600 C.ar  630  TYR630      0.0417
    107  CE2       24.7520   58.3320   27.1470 C.ar  630  TYR630      0.0417
    108  CZ        25.4060   58.0910   25.9670 C.ar  630  TYR630      0.1957
    109  OH        26.4360   58.9240   25.6010 O.3   630  TYR630     -0.2866
    110  N         25.0040   51.6460   23.7650 N.3   632  CYS632     -0.1235
    111  CA        25.9090   52.1970   22.7800 C.3   632  CYS632      0.1677
    112  C         26.7810   51.0750   22.2920 C.2   632  CYS632      0.2270
    113  O         27.5510   50.5360   23.0630 O.2   632  CYS632     -0.2867
    114  CB        26.7960   53.2670   23.4040 C.3   632  CYS632      0.0956
    115  SG        28.0170   53.9210   22.2600 S.3   632  CYS632     -0.0801
    116  N         23.1460   54.0100   19.1240 N.3   642  ILE642     -0.1231
    117  CA        23.0070   54.6270   20.4470 C.3   642  ILE642      0.1692
    118  C         21.5400   54.6400   20.9490 C.2   642  ILE642      0.2592
    119  O         20.6040   54.8700   20.1810 O.2   642  ILE642     -0.2718
    120  CB        23.5490   56.0800   20.3990 C.3   642  ILE642      0.0266
    121  CG1       24.9470   56.1220   19.7420 C.3   642  ILE642      0.0019
    122  CG2       23.5470   56.6880   21.8070 C.3   642  ILE642      0.0020
    123  CD1       25.4790   57.5080   19.4180 C.3   642  ILE642      0.0001
    124  N         21.3410   54.4100   22.2410 N.am  643  GLU643     -0.1966
    125  CA        19.9950   54.3630   22.7860 C.3   643  GLU643      0.1733
    126  C         19.5200   55.7760   23.0080 C.2   643  GLU643      0.2616
    127  O         20.2650   56.6140   23.5090 O.2   643  GLU643     -0.2715
    128  CB        19.9670   53.6000   24.1070 C.3   643  GLU643      0.0429
    129  CG        18.5820   53.4590   24.7230 C.3   643  GLU643      0.1163
    130  CD        18.6320   53.0670   26.1920 C.2   643  GLU643      0.3649
    131  OE1       17.7660   53.5510   26.9580 O.co2 643  GLU643     -0.2457
    132  OE2       19.5290   52.2790   26.5840 O.co2 643  GLU643     -0.2457
    133  N         18.2790   56.0460   22.6410 N.am  644  ILE644     -0.1963
    134  CA        17.7110   57.3560   22.8650 C.3   644  ILE644      0.1727
    135  C         16.9880   57.2860   24.1940 C.2   644  ILE644      0.2616
    136  O         15.9960   56.5580   24.3270 O.2   644  ILE644     -0.2715
    137  CB        16.7450   57.7340   21.7460 C.3   644  ILE644      0.0290
    138  CG1       17.5310   57.9600   20.4490 C.3   644  ILE644      0.0022
    139  CG2       15.9170   58.9650   22.1700 C.3   644  ILE644      0.0023
    140  CD1       16.6780   58.2710   19.2170 C.3   644  ILE644      0.0001
    141  N         17.5000   58.0240   25.1770 N.am  645  VAL645     -0.1977
    142  CA        16.8820   58.0660   26.4880 C.3   645  VAL645      0.1596
    143  C         15.6390   58.8550   26.2700 C.2   645  VAL645      0.2287
    144  O         15.7040   59.9470   25.7500 O.2   645  VAL645     -0.2864
    145  CB        17.7620   58.7460   27.5570 C.3   645  VAL645      0.0276
    146  CG1       16.9370   59.0900   28.7920 C.3   645  VAL645      0.0022
    147  CG2       18.9580   57.8360   27.9350 C.3   645  VAL645      0.0022
    148  N         14.4980   63.2480   27.0890 N.3   648  ALA648     -0.1245
    149  CA        15.7430   63.9170   27.4980 C.3   648  ALA648      0.1562
    150  C         16.0420   65.1780   26.6790 C.2   648  ALA648      0.2260
    151  O         15.6150   65.3010   25.5320 O.2   648  ALA648     -0.2867
    152  CB        16.9160   62.9430   27.4300 C.3   648  ALA648      0.0290
    153  N         19.1350   68.4770   26.0550 N.3   650  THR650     -0.1218
    154  CA        20.4820   68.9790   26.2160 C.3   650  THR650      0.1862
    155  C         20.4000   70.2010   27.1060 C.2   650  THR650      0.2287
    156  O         19.4490   70.9550   26.9920 O.2   650  THR650     -0.2866
    157  CB        21.0770   69.2410   24.8010 C.3   650  THR650      0.1770
    158  OG1       21.8900   68.1130   24.4170 O.3   650  THR650     -0.2211
    159  CG2       22.0280   70.4190   24.7540 C.3   650  THR650      0.0375
    160  N         20.3610   73.4570   25.3610 N.3   653  LYS653     -0.1245
    161  CA        19.0900   73.7520   24.6930 C.3   653  LYS653      0.1561
    162  C         18.1670   74.4910   25.6490 C.2   653  LYS653      0.2260
    163  O         17.4890   75.4430   25.2650 O.2   653  LYS653     -0.2867
    164  CB        18.4080   72.4630   24.2240 C.3   653  LYS653      0.0271
    165  CG        16.9780   72.6200   23.6720 C.3   653  LYS653      0.0035
    166  CD        16.9760   73.0760   22.2170 C.3   653  LYS653      0.0206
    167  CE        15.7870   72.5240   21.4410 C.3   653  LYS653      0.1093
    168  NZ        14.8830   73.6280   20.9960 N.3   653  LYS653     -0.1314
    169  N         26.5100   71.2960   26.0140 N.3   713  ASP713     -0.1225
    170  CA        25.8320   70.6870   24.8800 C.3   713  ASP713      0.1805
    171  C         25.9120   69.1550   24.9580 C.2   713  ASP713      0.2597
    172  O         24.9990   68.4550   24.5050 O.2   713  ASP713     -0.2718
    173  CB        26.4410   71.2200   23.5730 C.3   713  ASP713      0.1424
    174  CG        25.6690   70.7900   22.3390 C.2   713  ASP713      0.3668
    175  OD1       24.5100   71.2570   22.1720 O.co2 713  ASP713     -0.2456
    176  OD2       26.1490   70.0000   21.4810 O.co2 713  ASP713     -0.2456
    177  N         27.0110   68.6590   25.5360 N.am  714  ASN714     -0.1974
    178  CA        27.1990   67.2420   25.8330 C.3   714  ASN714      0.1688
    179  C         26.7680   66.8550   27.2640 C.2   714  ASN714      0.2292
    180  O         27.3600   65.9650   27.8630 O.2   714  ASN714     -0.2864
    181  CB        28.6700   66.8510   25.6030 C.3   714  ASN714      0.1181
    182  CG        29.1310   67.0550   24.1500 C.2   714  ASN714      0.2629
    183  OD1       30.2130   67.5990   23.9020 O.2   714  ASN714     -0.2716
    184  ND2       28.3280   66.5940   23.1910 N.am  714  ASN714     -0.0877
    185  N         22.9400   66.1900   29.4720 N.3   716  MET716     -0.1245
    186  CA        21.4920   66.1460   29.3160 C.3   716  MET716      0.1570
    187  C         20.7460   65.9930   30.6570 C.2   716  MET716      0.2261
    188  O         21.3620   65.7430   31.6990 O.2   716  MET716     -0.2867
    189  CB        21.1430   65.0060   28.3670 C.3   716  MET716      0.0387
    190  CG        21.8420   65.1140   27.0110 C.3   716  MET716      0.0595
    191  SD        21.1180   64.0730   25.7160 S.3   716  MET716     -0.1393
    192  CE        19.6420   65.0590   25.3260 C.3   716  MET716      0.0692
    193  N         22.6120   63.4440   32.9040 N.3   724  PHE724     -0.1241
    194  CA        23.6290   62.5080   32.4040 C.3   724  PHE724      0.1605
    195  C         24.4870   63.0860   31.2790 C.2   724  PHE724      0.2264
    196  O         24.0350   63.9330   30.5240 O.2   724  PHE724     -0.2867
    197  CB        23.0020   61.1820   31.9580 C.3   724  PHE724      0.0534
    198  CG        22.0330   61.3200   30.8370 C.ar  724  PHE724     -0.0203
    199  CD1       22.3770   60.9260   29.5630 C.ar  724  PHE724     -0.0042
    200  CD2       20.7790   61.8540   31.0460 C.ar  724  PHE724     -0.0042
    201  CE1       21.4880   61.0750   28.5080 C.ar  724  PHE724     -0.0003
    202  CE2       19.8870   61.9980   29.9910 C.ar  724  PHE724     -0.0003
    203  CZ        20.2480   61.6100   28.7210 C.ar  724  PHE724     -0.0000
    204  N         26.8960   62.8160   27.7250 N.3   726  ILE726     -0.1231
    205  CA        26.9300   62.0670   26.4580 C.3   726  ILE726      0.1692
    206  C         28.2460   62.2700   25.6880 C.2   726  ILE726      0.2592
    207  O         29.0730   63.0640   26.0880 O.2   726  ILE726     -0.2718
    208  CB        25.6990   62.4290   25.5540 C.3   726  ILE726      0.0266
    209  CG1       25.6020   63.9400   25.3080 C.3   726  ILE726      0.0019
    210  CG2       24.3980   61.8920   26.1690 C.3   726  ILE726      0.0020
    211  CD1       24.7610   64.3290   24.0920 C.3   726  ILE726      0.0001
    212  N         28.4450   61.4960   24.6220 N.am  727  ASP727     -0.1974
    213  CA        29.4530   61.7690   23.5840 C.3   727  ASP727      0.1709
    214  C         30.9140   61.7970   24.0540 C.2   727  ASP727      0.2293
    215  O         31.6380   62.7610   23.8100 O.2   727  ASP727     -0.2864
    216  CB        29.0960   63.0690   22.8430 C.3   727  ASP727      0.1436
    217  CG        29.6250   63.1000   21.4120 C.2   727  ASP727      0.3671
    218  OD1       30.3440   62.1550   21.0310 O.co2 727  ASP727     -0.2456
    219  OD2       29.3770   64.0300   20.6030 O.co2 727  ASP727     -0.2456
@<TRIPOS>BOND
     1    16    14    1
     2    14    15    1
     3    14    11    1
     4    10    11    1
     5    10     3   am
     6    11    12    1
     7     3     2    1
     8     3     4    2
     9     2     1    1
    10     2     5    1
    11    12    13    2
    12    12    17   am
    13     5     6    1
    14    17    18    1
    15    36    37    1
    16    36    42    1
    17    39    38    2
    18    38    37    1
    19    20    19    2
    20    33    32    2
    21    37    40    1
    22    19    25   am
    23    19    18    1
    24    26    25    1
    25    26    29    1
    26    26    27    1
    27    67    68    2
    28    67    66    1
    29    18    21    1
    30    42    41    1
    31     6     7    1
    32    30    27   am
    33    30    31    1
    34    46    45    2
    35    66    65    1
    36    66    69    1
    37    32    31    1
    38    27    28    2
    39    43    44    1
    40     7     8    1
    41    40    41    1
    42    21    22    1
    43    45    44    1
    44    31    34    1
    45    74    75    1
    46    71    70    1
    47    71    72    1
    48    44    47    1
    49    70    69    1
    50    35    34    1
    51    22    23    1
    52    77    76    2
    53    47    48    1
    54     8     9    1
    55    73    72    1
    56    75    76    1
    57    75    78    1
    58    59    60    2
    59    59    58    1
    60    23    24    1
    61    49    48   ar
    62    49    51   ar
    63    48    50   ar
    64    80    79   ar
    65    58    57    1
    66    58    61    1
    67    78    79    1
    68    79    81   ar
    69    63    61    1
    70    89    87    1
    71    51    52   ar
    72    61    62    1
    73    50    53   ar
    74    50    52   ar
    75    62    64    1
    76    82    83    1
    77    53    55   ar
    78    52    54   ar
    79    87    88    1
    80    87    86    1
    81    86    83    1
    82   116   117    1
    83   140   138    1
    84    83    84    1
    85   123   121    1
    86   121   120    1
    87    55    56   ar
    88    54    56   ar
    89   119   118    2
    90    84    85    2
    91   120   117    1
    92   120   122    1
    93   117   118    1
    94   138   137    1
    95   219   217   ar
    96   118   124   am
    97   168   167    1
    98   218   217   ar
    99   217   216    1
   100   167   166    1
   101   176   174   ar
   102   137   139    1
   103   137   134    1
   104    96    95   ar
   105   175   174   ar
   106   166   165    1
   107   124   125    1
   108   115   114    1
   109   112   111    1
   110   112   113    2
   111   174   173    1
   112   133   134    1
   113   133   126   am
   114   111   114    1
   115   111   110    1
   116    95    97   ar
   117    95    94    1
   118   125   126    1
   119   125   128    1
   120   216   213    1
   121   134   135    1
   122   126   127    2
   123   184   182   am
   124    94    91    1
   125    90    91    1
   126   173   170    1
   127   213   214    1
   128   213   212    1
   129   165   164    1
   130   215   214    2
   131   183   182    2
   132   211   209    1
   133   128   129    1
   134   182   181    1
   135   135   136    2
   136   135   141   am
   137    91    92    1
   138   164   161    1
   139   158   157    1
   140   172   171    2
   141   212   206   am
   142   161   160    1
   143   161   162    1
   144   129   130    1
   145   159   157    1
   146   157   154    1
   147    92    93    2
   148   170   171    1
   149   170   169    1
   150   171   177   am
   151   106   104   ar
   152   106   108   ar
   153   141   142    1
   154   163   162    2
   155   209   208    1
   156   192   191    1
   157   151   150    2
   158   177   178    1
   159   104   103   ar
   160   208   210    1
   161   208   205    1
   162   109   108    1
   163   181   178    1
   164   206   207    2
   165   206   205    1
   166   191   190    1
   167   144   143    2
   168   178   179    1
   169   108   107   ar
   170   153   154    1
   171   130   132   ar
   172   130   131   ar
   173   154   155    1
   174   143   142    1
   175   205   204    1
   176   142   145    1
   177   150   149    1
   178   103   102    1
   179   103   105   ar
   180   156   155    2
   181   190   189    1
   182   101   100    2
   183   100    99    1
   184   148   149    1
   185   107   105   ar
   186   102    99    1
   187   179   180    2
   188   152   149    1
   189   145   147    1
   190   145   146    1
   191    99    98    1
   192   189   186    1
   193   201   203   ar
   194   201   199   ar
   195   203   202   ar
   196   186   185    1
   197   186   187    1
   198   199   198   ar
   199   202   200   ar
   200   196   195    2
   201   187   188    2
   202   198   200   ar
   203   198   197    1
   204   195   194    1
   205   197   194    1
   206   194   193    1
