@<TRIPOS>MOLECULE
tmp/3dbuA00.pdb
 164 159 0 0 0
SMALL
GASTEIGER

@<TRIPOS>ATOM
      1  N         -0.8230   -2.0430    6.3730 N.3    61  HIS61      -0.1241
      2  CA        -0.7690   -2.8870    7.5720 C.3    61  HIS61       0.1621
      3  C         -2.1580   -3.4470    7.8850 C.2    61  HIS61       0.2264
      4  O         -2.3030   -4.3890    8.6540 O.2    61  HIS61      -0.2867
      5  CB        -0.2450   -2.2130    8.8200 C.3    61  HIS61       0.0745
      6  CG        -0.8390   -0.9280    9.2600 C.ar   61  HIS61       0.0817
      7  ND1       -1.9000   -0.8440   10.1370 N.ar   61  HIS61      -0.2268
      8  CD2       -0.5040    0.3530    8.9540 C.ar   61  HIS61       0.1154
      9  CE1       -2.2050    0.4230   10.3510 C.ar   61  HIS61       0.1986
     10  NE2       -1.3740    1.1680    9.6410 N.ar   61  HIS61      -0.2212
     11  N         -8.6650    0.2160    5.8200 N.3    64  GLN64      -0.1245
     12  CA        -9.5140    1.0390    6.6780 C.3    64  GLN64       0.1566
     13  C        -10.6120    1.6780    5.8240 C.2    64  GLN64       0.2260
     14  O        -10.3240    2.0070    4.6700 O.2    64  GLN64      -0.2867
     15  CB        -8.7120    2.1250    7.3930 C.3    64  GLN64       0.0367
     16  CG        -8.0180    3.0720    6.4300 C.3    64  GLN64       0.0905
     17  CD        -7.0900    4.0340    7.1490 C.2    64  GLN64       0.2608
     18  OE1       -7.1240    5.2430    6.9070 O.2    64  GLN64      -0.2717
     19  NE2       -6.2780    3.4660    8.0190 N.am   64  GLN64      -0.0878
     20  N        -14.0760    8.3020   12.7590 N.3    88  ILE88      -0.1231
     21  CA       -13.2640    8.7570   11.6340 C.3    88  ILE88       0.1692
     22  C        -12.9340    7.5870   10.7170 C.2    88  ILE88       0.2591
     23  O        -12.8520    7.7300    9.4930 O.2    88  ILE88      -0.2718
     24  CB       -11.9980    9.4660   12.1420 C.3    88  ILE88       0.0266
     25  CG1      -11.0450    9.8340   10.9930 C.3    88  ILE88       0.0019
     26  CG2      -11.2490    8.6780   13.2140 C.3    88  ILE88       0.0020
     27  CD1       -9.9880   10.8270   11.4380 C.3    88  ILE88       0.0001
     28  N        -12.7260    6.3820   11.2830 N.am   89  GLN89      -0.1979
     29  CA       -12.4100    5.2290   10.4350 C.3    89  GLN89       0.1601
     30  C        -12.6850    3.9230   11.1980 C.2    89  GLN89       0.2287
     31  O        -12.7300    3.9390   12.4210 O.2    89  GLN89      -0.2864
     32  CB       -10.9550    5.2370    9.9380 C.3    89  GLN89       0.0394
     33  CG        -9.9000    5.2880   11.0410 C.3    89  GLN89       0.0908
     34  CD        -9.0300    4.0470   11.0980 C.2    89  GLN89       0.2608
     35  OE1       -7.8010    4.1100   11.1040 O.2    89  GLN89      -0.2717
     36  NE2       -9.6680    2.8970   11.1400 N.am   89  GLN89      -0.0878
     37  N        -11.2120   -0.3620   10.9490 N.3    91  HIS91      -0.1241
     38  CA       -10.2720   -1.2690   10.2960 C.3    91  HIS91       0.1621
     39  C        -10.3340   -2.6000   11.0370 C.2    91  HIS91       0.2264
     40  O        -11.0300   -2.6910   12.0410 O.2    91  HIS91      -0.2867
     41  CB        -8.8540   -0.6770   10.2830 C.3    91  HIS91       0.0745
     42  CG        -8.3540   -0.4920   11.6940 C.ar   91  HIS91       0.0817
     43  ND1       -8.5510    0.6760   12.4070 N.ar   91  HIS91      -0.2268
     44  CD2       -7.6990   -1.3380   12.5390 C.ar   91  HIS91       0.1154
     45  CE1       -8.0300    0.5420   13.6230 C.ar   91  HIS91       0.1986
     46  NE2       -7.4980   -0.6760   13.7210 N.ar   91  HIS91      -0.2212
     47  N         -8.0850   -6.3640   12.3440 N.3    93  HIS93      -0.1241
     48  CA        -6.8700   -7.1630   12.5320 C.3    93  HIS93       0.1621
     49  C         -7.2670   -8.6210   12.3370 C.2    93  HIS93       0.2264
     50  O         -8.3710   -8.9870   12.7990 O.2    93  HIS93      -0.2867
     51  CB        -6.2790   -6.9510   13.9260 C.3    93  HIS93       0.0745
     52  CG        -5.9700   -5.5010   14.2040 C.ar   93  HIS93       0.0817
     53  ND1       -4.7130   -4.9750   14.0130 N.ar   93  HIS93      -0.2268
     54  CD2       -6.7880   -4.4920   14.6320 C.ar   93  HIS93       0.1154
     55  CE1       -4.7610   -3.6730   14.3340 C.ar   93  HIS93       0.1986
     56  NE2       -6.0010   -3.3690   14.6990 N.ar   93  HIS93      -0.2212
     57  N        -12.0300   -2.5780   14.7870 N.3   116  HIS116     -0.1241
     58  CA       -11.8090   -1.3820   15.6020 C.3   116  HIS116      0.1621
     59  C        -12.4910   -0.1850   14.9500 C.2   116  HIS116      0.2264
     60  O        -12.1320    0.1250   13.8090 O.2   116  HIS116     -0.2867
     61  CB       -10.3050   -1.0980   15.7450 C.3   116  HIS116      0.0745
     62  CG        -9.5980   -2.0870   16.6130 C.ar  116  HIS116      0.0817
     63  ND1       -8.2470   -2.3100   16.6150 N.ar  116  HIS116     -0.2268
     64  CD2      -10.1400   -2.9220   17.5430 C.ar  116  HIS116      0.1154
     65  CE1       -7.9630   -3.2420   17.5110 C.ar  116  HIS116      0.1986
     66  NE2       -9.1010   -3.6360   18.0890 N.ar  116  HIS116     -0.2212
     67  N        -12.7070    3.6860   15.2760 N.3   118  VAL118     -0.1245
     68  CA       -11.8970    4.7040   15.9330 C.3   118  VAL118      0.1561
     69  C        -12.6460    6.0330   15.9800 C.2   118  VAL118      0.2260
     70  O        -13.1250    6.4630   14.9270 O.2   118  VAL118     -0.2867
     71  CB       -10.5740    4.8970   15.1710 C.3   118  VAL118      0.0252
     72  CG1       -9.6520    5.9430   15.8070 C.3   118  VAL118      0.0019
     73  CG2       -9.8420    3.5700   15.0430 C.3   118  VAL118      0.0019
     74  N         -8.2550   15.6690   14.8750 N.3   127  PHE127     -0.1241
     75  CA        -7.7610   14.3520   15.2200 C.3   127  PHE127      0.1605
     76  C         -6.3090   14.4070   15.6670 C.2   127  PHE127      0.2264
     77  O         -5.8950   13.7870   16.6560 O.2   127  PHE127     -0.2867
     78  CB        -7.9120   13.4280   14.0020 C.3   127  PHE127      0.0534
     79  CG        -7.4020   12.0210   14.2710 C.ar  127  PHE127     -0.0203
     80  CD1       -8.2270   11.1090   14.9110 C.ar  127  PHE127     -0.0042
     81  CD2       -6.1320   11.6440   13.8700 C.ar  127  PHE127     -0.0042
     82  CE1       -7.7890    9.8170   15.1480 C.ar  127  PHE127     -0.0003
     83  CE2       -5.6740   10.3600   14.1170 C.ar  127  PHE127     -0.0003
     84  CZ        -6.5110    9.4590   14.7570 C.ar  127  PHE127     -0.0000
     85  N         -5.0270   13.0310   19.4390 N.3   131  VAL131     -0.1245
     86  CA        -4.1480   11.9000   19.7450 C.3   131  VAL131      0.1561
     87  C         -3.0570   12.2800   20.7440 C.2   131  VAL131      0.2260
     88  O         -2.3450   11.3880   21.2260 O.2   131  VAL131     -0.2867
     89  CB        -3.4440   11.2430   18.5350 C.3   131  VAL131      0.0252
     90  CG1       -4.4570   10.7410   17.5240 C.3   131  VAL131      0.0019
     91  CG2       -2.4570   12.2040   17.8880 C.3   131  VAL131      0.0019
     92  N         -8.9390    9.6490   22.2310 N.3   137  LEU137     -0.1245
     93  CA        -9.5660    8.6860   21.3150 C.3   137  LEU137      0.1561
     94  C        -10.4500    7.7110   22.0910 C.2   137  LEU137      0.2260
     95  O        -10.1880    7.3940   23.2610 O.2   137  LEU137     -0.2867
     96  CB        -8.5330    7.8810   20.5400 C.3   137  LEU137      0.0270
     97  CG        -7.6230    8.5490   19.5170 C.3   137  LEU137      0.0019
     98  CD1       -7.0560    7.5270   18.5290 C.3   137  LEU137      0.0001
     99  CD2       -8.3220    9.6630   18.7490 C.3   137  LEU137      0.0001
    100  N        -11.9290    3.8290   21.1080 N.3   139  VAL139     -0.1245
    101  CA       -11.9730    2.8210   20.0530 C.3   139  VAL139      0.1561
    102  C        -12.9280    1.7210   20.5320 C.2   139  VAL139      0.2260
    103  O        -12.7090    1.2360   21.6510 O.2   139  VAL139     -0.2867
    104  CB       -10.5940    2.2230   19.7360 C.3   139  VAL139      0.0252
    105  CG1      -10.7270    1.1490   18.6420 C.3   139  VAL139      0.0019
    106  CG2       -9.6160    3.3070   19.3070 C.3   139  VAL139      0.0019
    107  N         -2.9000    3.1570   21.2830 N.3   194  LEU194     -0.1231
    108  CA        -2.9770    2.5910   19.9330 C.3   194  LEU194      0.1693
    109  C         -2.2150    1.2750   19.9600 C.2   194  LEU194      0.2593
    110  O         -1.2490    1.1310   20.7320 O.2   194  LEU194     -0.2718
    111  CB        -2.3570    3.5280   18.9030 C.3   194  LEU194      0.0284
    112  CG        -2.9910    4.9340   18.8640 C.3   194  LEU194      0.0019
    113  CD1       -2.1500    5.8520   17.9840 C.3   194  LEU194      0.0001
    114  CD2       -4.4170    4.8650   18.3710 C.3   194  LEU194      0.0001
    115  N         -2.6260    0.3200   19.1230 N.am  195  THR195     -0.1939
    116  CA        -1.9050   -0.9500   19.1120 C.3   195  THR195      0.2028
    117  C         -0.9300   -1.0320   17.9370 C.2   195  THR195      0.2643
    118  O         -0.3330   -2.0930   17.7550 O.2   195  THR195     -0.2714
    119  CB        -2.8380   -2.1570   18.9980 C.3   195  THR195      0.1808
    120  OG1       -3.5260   -2.0910   17.7390 O.3   195  THR195     -0.2208
    121  CG2       -3.8560   -2.1160   20.1470 C.3   195  THR195      0.0379
    122  N         -0.8000    0.0430   17.1670 N.am  196  THR196     -0.1937
    123  CA         0.2590    0.1260   16.1620 C.3   196  THR196      0.2013
    124  C          1.0870    1.3890   16.4250 C.2   196  THR196      0.2484
    125  O          0.5130    2.3170   17.0430 O.2   196  THR196     -0.2729
    126  CB        -0.2790    0.1980   14.7190 C.3   196  THR196      0.1807
    127  OG1       -1.1170    1.3660   14.5870 O.3   196  THR196     -0.2208
    128  CG2       -1.1200   -1.0260   14.3930 C.3   196  THR196      0.0379
    129  N          2.3280    1.4430   15.9800 N.am  197  PRO197     -0.2715
    130  CA         3.0860    2.7040   16.0720 C.3   197  PRO197      0.1521
    131  C          2.2740    3.8770   15.5590 C.2   197  PRO197      0.2440
    132  O          1.5550    3.7430   14.5440 O.2   197  PRO197     -0.2731
    133  CB         4.2970    2.4180   15.1740 C.3   197  PRO197      0.0310
    134  CG         4.5440    0.9560   15.4530 C.3   197  PRO197      0.0237
    135  CD         3.1440    0.3650   15.3940 C.3   197  PRO197      0.0939
    136  N          2.3090    5.0470   16.1720 N.am  198  PRO198     -0.2727
    137  CA         3.1750    5.4160   17.2830 C.3   198  PRO198      0.1402
    138  C          2.7790    4.9870   18.6950 C.2   198  PRO198      0.2269
    139  O          3.4690    5.4330   19.6220 O.2   198  PRO198     -0.2865
    140  CB         3.1570    6.9650   17.2160 C.3   198  PRO198      0.0296
    141  CG         1.8540    7.2950   16.5970 C.3   198  PRO198      0.0237
    142  CD         1.5020    6.1780   15.6540 C.3   198  PRO198      0.0939
    143  N          0.5870    5.6370   20.8370 N.3   200  LEU200     -0.1245
    144  CA         0.2830    6.7030   21.7850 C.3   200  LEU200      0.1561
    145  C         -0.7450    6.2480   22.8130 C.2   200  LEU200      0.2260
    146  O         -1.7330    5.5560   22.5270 O.2   200  LEU200     -0.2867
    147  CB        -0.2450    7.9200   21.0210 C.3   200  LEU200      0.0270
    148  CG         0.7540    8.4950   19.9980 C.3   200  LEU200      0.0019
    149  CD1        0.1110    9.6410   19.2440 C.3   200  LEU200      0.0001
    150  CD2        2.0320    8.9460   20.6740 C.3   200  LEU200      0.0001
    151  N        -10.4230    2.3590   25.6500 N.3   205  TRP205     -0.1241
    152  CA       -10.9270    1.1720   24.9630 C.3   205  TRP205      0.1605
    153  C        -12.2820    0.7430   25.4910 C.2   205  TRP205      0.2264
    154  O        -12.4800    0.6850   26.7090 O.2   205  TRP205     -0.2867
    155  CB        -9.9470   -0.0140   25.1340 C.3   205  TRP205      0.0550
    156  CG        -8.7870    0.1450   24.1840 C.ar  205  TRP205      0.0003
    157  CD1       -7.5700    0.7140   24.3990 C.ar  205  TRP205      0.0946
    158  CD2       -8.7910   -0.3010   22.8130 C.ar  205  TRP205      0.0152
    159  NE1       -6.8140    0.6440   23.2430 N.ar  205  TRP205     -0.2442
    160  CE2       -7.5500    0.0290   22.2670 C.ar  205  TRP205      0.0810
    161  CE3       -9.7460   -0.9450   22.0250 C.ar  205  TRP205      0.0012
    162  CZ2       -7.2000   -0.2580   20.9380 C.ar  205  TRP205      0.0191
    163  CZ3       -9.4010   -1.2290   20.7160 C.ar  205  TRP205      0.0001
    164  CH2       -8.1570   -0.8910   20.1880 C.ar  205  TRP205      0.0015
@<TRIPOS>BOND
     1    14    13    2
     2    11    12    1
     3    13    12    1
     4     1     2    1
     5    16    17    1
     6    16    15    1
     7    12    15    1
     8    18    17    2
     9    17    19   am
    10     2     3    1
    11     2     5    1
    12     3     4    2
    13     5     6    1
    14     8     6   ar
    15     8    10   ar
    16     6     7   ar
    17    23    22    2
    18    10     9   ar
    19    32    29    1
    20    32    33    1
    21     7     9   ar
    22    41    38    1
    23    41    42    1
    24    38    37    1
    25    38    39    1
    26    29    30    1
    27    29    28    1
    28    22    28   am
    29    22    21    1
    30    25    27    1
    31    25    24    1
    32    39    40    2
    33    33    34    1
    34    34    35    2
    35    34    36   am
    36    30    31    2
    37    21    24    1
    38    21    20    1
    39    42    43   ar
    40    42    44   ar
    41    24    26    1
    42    49    48    1
    43    49    50    2
    44    47    48    1
    45    43    45   ar
    46    48    51    1
    47    44    46   ar
    48    45    46   ar
    49    60    59    2
    50    81    83   ar
    51    81    79   ar
    52    51    52    1
    53    78    79    1
    54    78    75    1
    55    53    52   ar
    56    53    55   ar
    57    83    84   ar
    58    52    54   ar
    59    79    80   ar
    60    55    56   ar
    61   128   126    1
    62   132   131    2
    63   127   126    1
    64    54    56   ar
    65   126   123    1
    66    84    82   ar
    67    57    58    1
    68    74    75    1
    69    80    82   ar
    70    70    69    2
    71    59    58    1
    72    73    71    1
    73    71    72    1
    74    71    68    1
    75   133   134    1
    76   133   130    1
    77    75    76    1
    78    67    68    1
    79   135   134    1
    80   135   129    1
    81   131   130    1
    82   131   136   am
    83    58    61    1
    84   142   136    1
    85   142   141    1
    86    76    77    2
    87    61    62    1
    88    68    69    1
    89   129   130    1
    90   129   124   am
    91   123   124    1
    92   123   122    1
    93   136   137    1
    94   124   125    2
    95   141   140    1
    96    62    63   ar
    97    62    64   ar
    98    63    65   ar
    99   122   117   am
   100   140   137    1
   101   137   138    1
   102    65    66   ar
   103    90    89    1
   104    64    66   ar
   105   120   119    1
   106   118   117    2
   107    91    89    1
   108   117   116    1
   109   113   112    1
   110   114   112    1
   111    98    97    1
   112    89    86    1
   113   105   104    1
   114   138   139    2
   115    99    97    1
   116   112   111    1
   117   111   108    1
   118   119   116    1
   119   119   121    1
   120   116   115    1
   121   115   109   am
   122   149   148    1
   123   106   104    1
   124    85    86    1
   125    97    96    1
   126   104   101    1
   127    86    87    1
   128   108   109    1
   129   108   107    1
   130   109   110    2
   131   148   150    1
   132   148   147    1
   133   101   102    1
   134   101   100    1
   135   164   163   ar
   136   164   162   ar
   137   102   103    2
   138    96    93    1
   139   163   161   ar
   140    87    88    2
   141   143   144    1
   142   162   160   ar
   143   147   144    1
   144    93    94    1
   145    93    92    1
   146   144   145    1
   147   161   158   ar
   148    94    95    2
   149   160   158   ar
   150   160   159   ar
   151   146   145    2
   152   158   156   ar
   153   159   157   ar
   154   156   157   ar
   155   156   155    1
   156   152   155    1
   157   152   153    1
   158   152   151    1
   159   153   154    2
