@<TRIPOS>MOLECULE
tmp/3dbxA02.pdb
 210 198 0 0 0
SMALL
GASTEIGER

@<TRIPOS>ATOM
      1  N         20.0410   50.3410   36.4480 N.3     9  LEU9       -0.1245
      2  CA        20.8480   51.4300   35.9680 C.3     9  LEU9        0.1561
      3  C         20.5450   52.6510   36.8430 C.2     9  LEU9        0.2260
      4  O         19.3820   52.9900   37.0930 O.2     9  LEU9       -0.2867
      5  CB        20.4890   51.7520   34.5140 C.3     9  LEU9        0.0270
      6  CG        20.7840   50.7670   33.3910 C.3     9  LEU9        0.0019
      7  CD1       20.0500   51.1870   32.0930 C.3     9  LEU9        0.0001
      8  CD2       22.2710   50.6770   33.1310 C.3     9  LEU9        0.0001
      9  N         21.7240   56.7500   37.0840 N.3    11  TYR11      -0.1241
     10  CA        22.4450   57.8410   36.4140 C.3    11  TYR11       0.1605
     11  C         22.1810   59.1510   37.1280 C.2    11  TYR11       0.2264
     12  O         21.0470   59.4150   37.4760 O.2    11  TYR11      -0.2867
     13  CB        21.9790   57.9990   34.9670 C.3    11  TYR11       0.0534
     14  CG        22.6380   57.0510   34.0110 C.ar   11  TYR11      -0.0201
     15  CD1       23.7120   57.4510   33.2350 C.ar   11  TYR11      -0.0009
     16  CD2       22.2130   55.7350   33.9070 C.ar   11  TYR11      -0.0009
     17  CE1       24.3460   56.5580   32.3440 C.ar   11  TYR11       0.0417
     18  CE2       22.8460   54.8280   33.0190 C.ar   11  TYR11       0.0417
     19  CZ        23.9070   55.2530   32.2560 C.ar   11  TYR11       0.1957
     20  OH        24.5180   54.3710   31.3740 O.3    11  TYR11      -0.2866
     21  N         23.1740   51.3710   23.0910 N.3    63  ILE63      -0.1231
     22  CA        21.8650   51.8530   23.5540 C.3    63  ILE63       0.1692
     23  C         22.0130   52.9430   24.6150 C.2    63  ILE63       0.2591
     24  O         21.3290   53.9780   24.5770 O.2    63  ILE63      -0.2718
     25  CB        21.0290   50.6810   24.1610 C.3    63  ILE63       0.0266
     26  CG1       20.3980   49.8260   23.0610 C.3    63  ILE63       0.0019
     27  CG2       19.9600   51.1910   25.1560 C.3    63  ILE63       0.0020
     28  CD1       19.8740   48.4760   23.5450 C.3    63  ILE63       0.0001
     29  N         22.9060   52.6920   25.5690 N.am   64  LEU64      -0.1980
     30  CA        23.0730   53.5410   26.7280 C.3    64  LEU64       0.1596
     31  C         23.7820   54.8580   26.4120 C.2    64  LEU64       0.2287
     32  O         23.5910   55.8580   27.1160 O.2    64  LEU64      -0.2864
     33  CB        23.8130   52.7700   27.8280 C.3    64  LEU64       0.0297
     34  CG        23.0980   51.5300   28.4110 C.3    64  LEU64       0.0022
     35  CD1       23.9480   50.7770   29.4520 C.3    64  LEU64       0.0001
     36  CD2       21.7420   51.8900   28.9910 C.3    64  LEU64       0.0001
     37  N         18.6930   57.1170   20.9520 N.3    68  MET68      -0.1230
     38  CA        17.6020   58.0290   21.2670 C.3    68  MET68       0.1702
     39  C         17.4110   58.3100   22.7610 C.2    68  MET68       0.2592
     40  O         17.0540   59.4210   23.1450 O.2    68  MET68      -0.2718
     41  CB        16.3230   57.4330   20.7060 C.3    68  MET68       0.0401
     42  CG        15.0840   58.2460   20.9370 C.3    68  MET68       0.0596
     43  SD        13.7290   57.4470   20.0610 S.3    68  MET68      -0.1393
     44  CE        13.9540   58.0500   18.3670 C.3    68  MET68       0.0692
     45  N         17.6140   57.2890   23.5900 N.am   69  VAL69      -0.1980
     46  CA        17.4570   57.4200   25.0380 C.3    69  VAL69       0.1595
     47  C         18.8220   57.3570   25.7350 C.2    69  VAL69       0.2287
     48  O         18.8960   57.2540   26.9520 O.2    69  VAL69      -0.2864
     49  CB        16.4860   56.3520   25.6140 C.3    69  VAL69       0.0276
     50  CG1       15.1400   56.4050   24.8950 C.3    69  VAL69       0.0022
     51  CG2       17.0830   54.9540   25.5130 C.3    69  VAL69       0.0022
     52  N         21.9540   62.1440   24.3110 N.3    73  ASN73      -0.1225
     53  CA        20.6440   62.7790   24.1220 C.3    73  ASN73       0.1785
     54  C         20.0020   63.1830   25.4380 C.2    73  ASN73       0.2597
     55  O         19.4560   64.2790   25.5460 O.2    73  ASN73      -0.2718
     56  CB        19.6910   61.8890   23.3250 C.3    73  ASN73       0.1169
     57  CG        19.8300   62.0710   21.8080 C.2    73  ASN73       0.2627
     58  OD1       19.9740   63.1870   21.3010 O.2    73  ASN73      -0.2716
     59  ND2       19.7650   60.9650   21.0830 N.am   73  ASN73      -0.0877
     60  N         20.0690   62.3000   26.4360 N.am   74  THR74      -0.1953
     61  CA        19.5330   62.5960   27.7850 C.3    74  THR74       0.1897
     62  C         20.0960   63.8840   28.4230 C.2    74  THR74       0.2313
     63  O         19.3420   64.6840   28.9630 O.2    74  THR74      -0.2863
     64  CB        19.7270   61.4090   28.7670 C.3    74  THR74       0.1794
     65  OG1       19.2470   60.2080   28.1610 O.3    74  THR74      -0.2208
     66  CG2       18.9590   61.6540   30.0540 C.3    74  THR74       0.0378
     67  N         21.3520   66.4920   26.8470 N.3    76  ARG76      -0.1231
     68  CA        20.7530   67.6050   26.1270 C.3    76  ARG76       0.1694
     69  C         19.2570   67.7540   26.4110 C.2    76  ARG76       0.2592
     70  O         18.7660   68.8650   26.5190 O.2    76  ARG76      -0.2718
     71  CB        21.0240   67.5120   24.6230 C.3    76  ARG76       0.0321
     72  CG        20.7000   68.8030   23.8730 C.3    76  ARG76       0.0489
     73  CD        21.3960   68.8940   22.5070 C.3    76  ARG76       0.2205
     74  NE        21.4150   67.5940   21.8400 N.pl3  76  ARG76      -0.0865
     75  CZ        20.3990   67.1060   21.1330 C.cat  76  ARG76       0.5346
     76  NH1       19.2770   67.8210   20.9960 N.pl3  76  ARG76       0.1354
     77  NH2       20.5080   65.9050   20.5640 N.pl3  76  ARG76       0.1354
     78  N         18.5410   66.6470   26.5590 N.am   77  PHE77      -0.1962
     79  CA        17.1420   66.7080   26.9680 C.3    77  PHE77       0.1771
     80  C         16.9730   67.3500   28.3500 C.2    77  PHE77       0.2619
     81  O         16.0020   68.0740   28.5760 O.2    77  PHE77      -0.2715
     82  CB        16.5180   65.3160   26.9860 C.3    77  PHE77       0.0574
     83  CG        15.0530   65.3190   27.3260 C.ar   77  PHE77      -0.0200
     84  CD1       14.1110   65.7870   26.4070 C.ar   77  PHE77      -0.0042
     85  CD2       14.6140   64.8620   28.5690 C.ar   77  PHE77      -0.0042
     86  CE1       12.7550   65.7940   26.7200 C.ar   77  PHE77      -0.0003
     87  CE2       13.2590   64.8720   28.8950 C.ar   77  PHE77      -0.0003
     88  CZ        12.3300   65.3340   27.9720 C.ar   77  PHE77      -0.0000
     89  N         17.9030   67.0790   29.2690 N.am   78  MET78      -0.1977
     90  CA        17.8170   67.6630   30.6200 C.3    78  MET78       0.1605
     91  C         18.1690   69.1530   30.6400 C.2    78  MET78       0.2287
     92  O         17.4640   69.9400   31.2730 O.2    78  MET78      -0.2864
     93  CB        18.6400   66.8750   31.6280 C.3    78  MET78       0.0413
     94  CG        18.1650   65.4160   31.8740 C.3    78  MET78       0.0598
     95  SD        16.3970   65.2050   32.2260 S.3    78  MET78      -0.1393
     96  CE        16.2880   63.4160   32.2720 C.3    78  MET78       0.0692
     97  N         17.6580   71.0810   28.1860 N.3    80  GLU80      -0.1245
     98  CA        16.5270   71.6840   27.4800 C.3    80  GLU80       0.1567
     99  C         15.2990   71.9210   28.3550 C.2    80  GLU80       0.2260
    100  O         14.6090   72.9290   28.1990 O.2    80  GLU80      -0.2867
    101  CB        16.0960   70.8160   26.2940 C.3    80  GLU80       0.0388
    102  CG        17.1920   70.3930   25.3190 C.3    80  GLU80       0.1160
    103  CD        18.1220   71.5210   24.9070 C.2    80  GLU80       0.3649
    104  OE1       17.6860   72.4040   24.1290 O.co2  80  GLU80      -0.2457
    105  OE2       19.2970   71.5020   25.3500 O.co2  80  GLU80      -0.2457
    106  N         18.2720   59.2450   37.2180 N.3    95  ILE95      -0.1245
    107  CA        17.4910   58.2750   36.4370 C.3    95  ILE95       0.1561
    108  C         17.7130   56.8720   36.9820 C.2    95  ILE95       0.2260
    109  O         18.8440   56.3920   37.0210 O.2    95  ILE95      -0.2867
    110  CB        17.8620   58.2920   34.9090 C.3    95  ILE95       0.0252
    111  CG1       17.6030   59.6640   34.2780 C.3    95  ILE95       0.0019
    112  CG2       17.0610   57.2340   34.1320 C.3    95  ILE95       0.0019
    113  CD1       18.8300   60.5550   34.1920 C.3    95  ILE95       0.0001
    114  N         16.4980   52.9810   36.4600 N.3    97  THR97      -0.1218
    115  CA        15.8520   52.0180   35.6000 C.3    97  THR97       0.1862
    116  C         16.1010   50.6000   36.1450 C.2    97  THR97       0.2287
    117  O         17.1480   50.3380   36.7480 O.2    97  THR97      -0.2866
    118  CB        16.4520   52.1240   34.1770 C.3    97  THR97       0.1770
    119  OG1       16.3090   53.4670   33.6930 O.3    97  THR97      -0.2211
    120  CG2       15.7700   51.1900   33.2260 C.3    97  THR97       0.0375
    121  N         11.0890   52.8530   34.7070 N.3   111  VAL111     -0.1245
    122  CA        11.9570   54.0130   34.5160 C.3   111  VAL111      0.1561
    123  C         11.4670   55.1640   35.3820 C.2   111  VAL111      0.2260
    124  O         10.3310   55.6420   35.2170 O.2   111  VAL111     -0.2867
    125  CB        12.0160   54.5280   33.0780 C.3   111  VAL111      0.0252
    126  CG1       13.0300   55.6790   33.0000 C.3   111  VAL111      0.0019
    127  CG2       12.3990   53.4290   32.1120 C.3   111  VAL111      0.0019
    128  N         12.5040   59.1230   36.8570 N.3   113  ILE113     -0.1245
    129  CA        13.3360   60.3370   36.8270 C.3   113  ILE113      0.1561
    130  C         13.0840   61.2100   38.0630 C.2   113  ILE113      0.2260
    131  O         11.9440   61.4570   38.4160 O.2   113  ILE113     -0.2867
    132  CB        13.1110   61.1770   35.5200 C.3   113  ILE113      0.0252
    133  CG1       13.3030   60.2890   34.2750 C.3   113  ILE113      0.0019
    134  CG2       14.0650   62.3350   35.4670 C.3   113  ILE113      0.0019
    135  CD1       13.0470   60.9700   32.9210 C.3   113  ILE113      0.0001
    136  N          4.2260   58.5080   30.0510 N.3   130  TRP130     -0.1241
    137  CA         5.0110   59.0790   31.1550 C.3   130  TRP130      0.1605
    138  C          4.0930   59.8570   32.1030 C.2   130  TRP130      0.2264
    139  O          3.2860   60.6840   31.6500 O.2   130  TRP130     -0.2867
    140  CB         6.0850   60.0100   30.6060 C.3   130  TRP130      0.0550
    141  CG         7.2140   59.2950   29.9560 C.ar  130  TRP130      0.0003
    142  CD1        7.2520   58.8120   28.6830 C.ar  130  TRP130      0.0946
    143  CD2        8.4850   58.9840   30.5440 C.ar  130  TRP130      0.0152
    144  NE1        8.4670   58.2150   28.4420 N.ar  130  TRP130     -0.2442
    145  CE2        9.2420   58.3070   29.5650 C.ar  130  TRP130      0.0810
    146  CE3        9.0560   59.2110   31.8050 C.ar  130  TRP130      0.0012
    147  CZ2       10.5440   57.8500   29.8040 C.ar  130  TRP130      0.0191
    148  CZ3       10.3520   58.7570   32.0430 C.ar  130  TRP130      0.0001
    149  CH2       11.0780   58.0860   31.0440 C.ar  130  TRP130      0.0015
    150  N          7.8810   63.7790   26.7000 N.3   146  LEU146     -0.1245
    151  CA         8.2420   62.3650   26.6260 C.3   146  LEU146      0.1561
    152  C          7.1200   61.4730   26.0640 C.2   146  LEU146      0.2260
    153  O          7.3840   60.6070   25.2160 O.2   146  LEU146     -0.2867
    154  CB         8.7530   61.8550   27.9790 C.3   146  LEU146      0.0270
    155  CG        10.1670   62.3030   28.3820 C.3   146  LEU146      0.0019
    156  CD1       10.4300   62.0090   29.8530 C.3   146  LEU146      0.0001
    157  CD2       11.2330   61.6580   27.4910 C.3   146  LEU146      0.0001
    158  N          6.6280   61.9990   22.3690 N.3   149  LEU149     -0.1245
    159  CA         7.6740   61.2890   21.6410 C.3   149  LEU149      0.1561
    160  C          7.3340   59.7960   21.5570 C.2   149  LEU149      0.2260
    161  O          7.8050   58.9850   22.3550 O.2   149  LEU149     -0.2867
    162  CB         9.0430   61.5470   22.2870 C.3   149  LEU149      0.0270
    163  CG         9.9070   62.6830   21.7050 C.3   149  LEU149      0.0019
    164  CD1        9.1490   64.0180   21.4760 C.3   149  LEU149      0.0001
    165  CD2       11.1490   62.9000   22.5670 C.3   149  LEU149      0.0001
    166  N         10.1140   57.2010   21.2360 N.3   152  VAL152     -0.1245
    167  CA        10.8070   56.8930   22.4980 C.3   152  VAL152      0.1561
    168  C         10.0620   55.7970   23.2490 C.2   152  VAL152      0.2260
    169  O         10.6710   54.8660   23.7700 O.2   152  VAL152     -0.2867
    170  CB        10.9600   58.1500   23.4100 C.3   152  VAL152      0.0252
    171  CG1       11.3520   57.7620   24.8320 C.3   152  VAL152      0.0019
    172  CG2       11.9710   59.1360   22.8250 C.3   152  VAL152      0.0019
    173  N         11.6150   52.1820   24.1360 N.3   156  LEU156     -0.1245
    174  CA        11.6760   51.6610   25.5030 C.3   156  LEU156      0.1561
    175  C         11.0220   50.3010   25.6290 C.2   156  LEU156      0.2260
    176  O         11.5220   49.4470   26.3590 O.2   156  LEU156     -0.2867
    177  CB        11.0370   52.6320   26.4980 C.3   156  LEU156      0.0270
    178  CG        11.8880   53.8310   26.9090 C.3   156  LEU156      0.0019
    179  CD1       11.0880   54.7570   27.7950 C.3   156  LEU156      0.0001
    180  CD2       13.1570   53.3740   27.6120 C.3   156  LEU156      0.0001
    181  N         13.4360   47.7540   24.3990 N.3   159  ILE159     -0.1231
    182  CA        14.5300   47.6880   25.3580 C.3   159  ILE159      0.1692
    183  C         14.2040   46.7110   26.4800 C.2   159  ILE159      0.2592
    184  O         14.9850   45.8050   26.7680 O.2   159  ILE159     -0.2718
    185  CB        14.8180   49.0870   25.9320 C.3   159  ILE159      0.0266
    186  CG1       15.6680   49.9210   24.9660 C.3   159  ILE159      0.0019
    187  CG2       15.5150   49.0030   27.2440 C.3   159  ILE159      0.0020
    188  CD1       16.1920   51.2330   25.6320 C.3   159  ILE159      0.0001
    189  N         13.0340   46.8890   27.0870 N.am  160  PHE160     -0.1976
    190  CA        12.6320   46.1160   28.2610 C.3   160  PHE160      0.1639
    191  C         12.0780   44.7360   27.9390 C.2   160  PHE160      0.2290
    192  O         12.0720   43.8630   28.8040 O.2   160  PHE160     -0.2864
    193  CB        11.6240   46.9010   29.1150 C.3   160  PHE160      0.0560
    194  CG        12.2080   48.1190   29.7640 C.ar  160  PHE160     -0.0200
    195  CD1       13.2230   48.0020   30.7110 C.ar  160  PHE160     -0.0042
    196  CD2       11.7440   49.3820   29.4310 C.ar  160  PHE160     -0.0042
    197  CE1       13.7780   49.1190   31.3030 C.ar  160  PHE160     -0.0003
    198  CE2       12.2820   50.5080   30.0080 C.ar  160  PHE160     -0.0003
    199  CZ        13.3080   50.3850   30.9470 C.ar  160  PHE160     -0.0000
    200  N         17.1800   44.0830   27.2240 N.3   164  PHE164     -0.1241
    201  CA        17.6420   43.8420   28.5990 C.3   164  PHE164      0.1605
    202  C         17.4790   42.3850   29.0790 C.2   164  PHE164      0.2264
    203  O         18.3990   41.8720   29.7160 O.2   164  PHE164     -0.2867
    204  CB        17.0360   44.8340   29.6130 C.3   164  PHE164      0.0534
    205  CG        17.4890   46.2580   29.4410 C.ar  164  PHE164     -0.0203
    206  CD1       18.5110   46.5960   28.5510 C.ar  164  PHE164     -0.0042
    207  CD2       16.9060   47.2650   30.2040 C.ar  164  PHE164     -0.0042
    208  CE1       18.9430   47.9240   28.4030 C.ar  164  PHE164     -0.0003
    209  CE2       17.3240   48.6070   30.0770 C.ar  164  PHE164     -0.0003
    210  CZ        18.3550   48.9350   29.1770 C.ar  164  PHE164     -0.0000
@<TRIPOS>BOND
     1    44    43    1
     2    43    42    1
     3    77    75    1
     4    41    42    1
     5    41    38    1
     6    37    38    1
     7    76    75    1
     8    59    57   am
     9    75    74    2
    10   166   167    1
    11    38    39    1
    12    58    57    2
    13   164   163    1
    14   160   159    1
    15   160   161    2
    16   159   162    1
    17   159   158    1
    18   163   162    1
    19   163   165    1
    20    57    56    1
    21    74    73    1
    22   167   168    1
    23   167   170    1
    24    73    72    1
    25    39    40    2
    26    39    45   am
    27   172   170    1
    28    26    28    1
    29    26    25    1
    30    21    22    1
    31   168   169    2
    32    56    53    1
    33   170   171    1
    34    22    25    1
    35    22    23    1
    36    45    46    1
    37    72    71    1
    38    53    52    1
    39    53    54    1
    40   104   103   ar
    41   173   174    1
    42    25    27    1
    43   181   182    1
    44    24    23    2
    45    23    29   am
    46    71    68    1
    47    50    49    1
    48   103   102    1
    49   103   105   ar
    50   186   188    1
    51   186   185    1
    52    46    49    1
    53    46    47    1
    54   153   152    2
    55   102   101    1
    56   182   185    1
    57   182   183    1
    58    54    55    2
    59    54    60   am
    60   174   175    1
    61   174   177    1
    62    51    49    1
    63    29    30    1
    64   175   176    2
    65    47    48    2
    66   185   187    1
    67   152   151    1
    68    68    69    1
    69    68    67    1
    70   101    98    1
    71    84    86   ar
    72    84    83   ar
    73    69    70    2
    74    69    78   am
    75    31    30    1
    76    31    32    2
    77    60    61    1
    78   183   184    2
    79   183   189   am
    80   177   178    1
    81    78    79    1
    82   151   150    1
    83   151   154    1
    84    86    88   ar
    85    30    33    1
    86   178   180    1
    87   178   179    1
    88    79    82    1
    89    79    80    1
    90    82    83    1
    91   189   190    1
    92   200   201    1
    93    83    85   ar
    94    98    97    1
    95    98    99    1
    96   157   155    1
    97    61    62    1
    98    61    64    1
    99    33    34    1
   100   191   190    1
   101   191   192    2
   102    88    87   ar
   103   154   155    1
   104    65    64    1
   105   100    99    2
   106   190   193    1
   107    80    81    2
   108    80    89   am
   109   155   156    1
   110   208   206   ar
   111   208   210   ar
   112    34    36    1
   113    34    35    1
   114    62    63    2
   115   144   142   ar
   116   144   145   ar
   117   206   205   ar
   118    85    87   ar
   119   201   202    1
   120   201   204    1
   121   142   141   ar
   122    64    66    1
   123   202   203    2
   124   193   194    1
   125   210   209   ar
   126    89    90    1
   127   196   194   ar
   128   196   198   ar
   129   205   204    1
   130   205   207   ar
   131   145   147   ar
   132   145   143   ar
   133   194   195   ar
   134   147   149   ar
   135   141   143   ar
   136   141   140    1
   137   198   199   ar
   138   136   137    1
   139   209   207   ar
   140   143   146   ar
   141   140   137    1
   142    90    91    1
   143    90    93    1
   144    91    92    2
   145   195   197   ar
   146   199   197   ar
   147   149   148   ar
   148   137   138    1
   149    20    19    1
   150    93    94    1
   151   139   138    2
   152   146   148   ar
   153    94    95    1
   154     7     6    1
   155   127   125    1
   156    95    96    1
   157    19    17   ar
   158    19    18   ar
   159    17    15   ar
   160   135   133    1
   161   126   125    1
   162    18    16   ar
   163   125   122    1
   164     8     6    1
   165   120   118    1
   166    15    14   ar
   167     6     5    1
   168   119   118    1
   169    16    14   ar
   170    14    13    1
   171   112   110    1
   172   118   115    1
   173   113   111    1
   174   133   132    1
   175   111   110    1
   176     5     2    1
   177   122   121    1
   178   122   123    1
   179   110   107    1
   180    13    10    1
   181   124   123    2
   182   134   132    1
   183   132   129    1
   184   115   116    1
   185   115   114    1
   186     2     1    1
   187     2     3    1
   188   116   117    2
   189    10     9    1
   190    10    11    1
   191   107   108    1
   192   107   106    1
   193   129   128    1
   194   129   130    1
   195     3     4    2
   196   108   109    2
   197    11    12    2
   198   130   131    2
