@<TRIPOS>MOLECULE
tmp/3dcbA00.pdb
 151 146 0 0 0
SMALL
GASTEIGER

@<TRIPOS>ATOM
      1  N         85.6750    0.8580  -14.5120 N.3    10  ARG10      -0.1231
      2  CA        85.8130    1.5200  -15.7930 C.3    10  ARG10       0.1694
      3  C         86.6170    2.7910  -15.6160 C.2    10  ARG10       0.2592
      4  O         86.2200    3.6880  -14.8790 O.2    10  ARG10      -0.2718
      5  CB        84.4490    1.8760  -16.3730 C.3    10  ARG10       0.0321
      6  CG        84.5510    2.5260  -17.7380 C.3    10  ARG10       0.0489
      7  CD        83.2220    3.0490  -18.2290 C.3    10  ARG10       0.2205
      8  NE        83.2260    3.1550  -19.6840 N.pl3  10  ARG10      -0.0865
      9  CZ        82.2390    3.6670  -20.4150 C.cat  10  ARG10       0.5346
     10  NH1       81.1410    4.1440  -19.8390 N.pl3  10  ARG10       0.1354
     11  NH2       82.3450    3.6760  -21.7350 N.pl3  10  ARG10       0.1354
     12  N         87.7500    2.8600  -16.2980 N.am   11  GLU11      -0.1966
     13  CA        88.6160    4.0230  -16.2290 C.3    11  GLU11       0.1733
     14  C         88.0050    5.2150  -16.9610 C.2    11  GLU11       0.2616
     15  O         87.6160    5.1030  -18.1220 O.2    11  GLU11      -0.2715
     16  CB        89.9590    3.6770  -16.8460 C.3    11  GLU11       0.0429
     17  CG        90.8470    4.8630  -17.1020 C.3    11  GLU11       0.1163
     18  CD        92.1140    4.4520  -17.8030 C.2    11  GLU11       0.3649
     19  OE1       92.0170    3.7030  -18.8010 O.co2  11  GLU11      -0.2457
     20  OE2       93.2000    4.8510  -17.3450 O.co2  11  GLU11      -0.2457
     21  N         87.9240    6.3580  -16.2890 N.am   12  ALA12      -0.1964
     22  CA        87.3640    7.5380  -16.9350 C.3    12  ALA12       0.1713
     23  C         88.3330    8.0690  -17.9870 C.2    12  ALA12       0.2458
     24  O         89.5490    7.9030  -17.8750 O.2    12  ALA12      -0.2730
     25  CB        87.0710    8.6150  -15.9110 C.3    12  ALA12       0.0333
     26  N         87.8000    8.7340  -19.0210 N.am   13  PRO13      -0.2727
     27  CA        88.6810    9.2690  -20.0660 C.3    13  PRO13       0.1402
     28  C         89.5610   10.3630  -19.4700 C.2    13  PRO13       0.2269
     29  O         89.1430   11.0540  -18.5430 O.2    13  PRO13      -0.2865
     30  CB        87.6930    9.7960  -21.1040 C.3    13  PRO13       0.0296
     31  CG        86.5490   10.2570  -20.2550 C.3    13  PRO13       0.0237
     32  CD        86.3980    9.1400  -19.2460 C.3    13  PRO13       0.0939
     33  N         91.0690   13.8670  -19.5000 N.3    15  ARG15      -0.1245
     34  CA        90.7780   15.1400  -20.1470 C.3    15  ARG15       0.1563
     35  C         92.0800   15.8150  -20.5890 C.2    15  ARG15       0.2260
     36  O         92.9220   16.1500  -19.7590 O.2    15  ARG15      -0.2867
     37  CB        90.0120   16.0610  -19.1890 C.3    15  ARG15       0.0307
     38  CG        88.9520   16.9510  -19.8620 C.3    15  ARG15       0.0489
     39  CD        87.6040   16.2360  -20.0390 C.3    15  ARG15       0.2205
     40  NE        87.6310   15.1940  -21.0680 N.pl3  15  ARG15      -0.0865
     41  CZ        86.6120   14.3820  -21.3530 C.cat  15  ARG15       0.5346
     42  NH1       86.7370   13.4690  -22.3090 N.pl3  15  ARG15       0.1354
     43  NH2       85.4710   14.4700  -20.6810 N.pl3  15  ARG15       0.1354
     44  N         89.6430    3.2980  -20.3380 N.3    52  ALA52      -0.1245
     45  CA        88.8930    4.4210  -20.8820 C.3    52  ALA52       0.1562
     46  C         88.6130    4.2910  -22.3760 C.2    52  ALA52       0.2260
     47  O         87.7830    5.0170  -22.9060 O.2    52  ALA52      -0.2867
     48  CB        89.6280    5.7280  -20.5830 C.3    52  ALA52       0.0290
     49  N         87.3250    1.6170  -23.8110 N.3    54  ILE54      -0.1245
     50  CA        86.1360    0.8040  -24.0270 C.3    54  ILE54       0.1561
     51  C         84.9170    1.6720  -24.3610 C.2    54  ILE54       0.2260
     52  O         84.7510    2.7530  -23.8010 O.2    54  ILE54      -0.2867
     53  CB        85.7850   -0.0340  -22.7820 C.3    54  ILE54       0.0252
     54  CG1       86.9740   -0.9280  -22.4100 C.3    54  ILE54       0.0019
     55  CG2       84.5420   -0.8600  -23.0470 C.3    54  ILE54       0.0019
     56  CD1       87.3290   -1.9780  -23.4550 C.3    54  ILE54       0.0001
     57  N         83.3640   11.9080   -7.8490 N.3    85  THR85      -0.1203
     58  CA        82.5900   12.7660   -8.7470 C.3    85  THR85       0.1994
     59  C         83.2990   13.0210  -10.0770 C.2    85  THR85       0.2618
     60  O         84.5180   13.1970  -10.1150 O.2    85  THR85      -0.2717
     61  CB        82.2710   14.1330   -8.0940 C.3    85  THR85       0.1784
     62  OG1       81.7410   15.0190   -9.0850 O.3    85  THR85      -0.2211
     63  CG2       83.5230   14.7550   -7.4850 C.3    85  THR85       0.0376
     64  N         82.5340   13.0250  -11.1670 N.am   86  GLY86      -0.1942
     65  CA        83.0960   13.2690  -12.4840 C.3    86  GLY86       0.2014
     66  C         83.8320   12.1200  -13.1400 C.2    86  GLY86       0.2640
     67  O         84.6800   12.3450  -14.0080 O.2    86  GLY86      -0.2714
     68  N         83.5210   10.8860  -12.7560 N.am   87  THR87      -0.1936
     69  CA        84.1920    9.7310  -13.3480 C.3    87  THR87       0.2028
     70  C         83.3440    8.9970  -14.3810 C.2    87  THR87       0.2643
     71  O         83.7270    7.9260  -14.8570 O.2    87  THR87      -0.2714
     72  CB        84.6350    8.7190  -12.2740 C.3    87  THR87       0.1808
     73  OG1       83.5670    8.5010  -11.3420 O.3    87  THR87      -0.2208
     74  CG2       85.8660    9.2240  -11.5470 C.3    87  THR87       0.0379
     75  N         82.1860    9.5600  -14.7200 N.am   88  GLY88      -0.1939
     76  CA        81.3280    8.9360  -15.7120 C.3    88  GLY88       0.2014
     77  C         80.3030    7.9400  -15.2010 C.2    88  GLY88       0.2639
     78  O         79.8500    7.0860  -15.9660 O.2    88  GLY88      -0.2714
     79  N         79.9330    8.0310  -13.9240 N.am   89  LYS89      -0.1963
     80  CA        78.9290    7.1250  -13.3720 C.3    89  LYS89       0.1728
     81  C         77.5960    7.3790  -14.0710 C.2    89  LYS89       0.2617
     82  O         76.9670    6.4610  -14.6040 O.2    89  LYS89      -0.2715
     83  CB        78.7600    7.3510  -11.8690 C.3    89  LYS89       0.0311
     84  CG        79.9800    6.9700  -11.0700 C.3    89  LYS89       0.0038
     85  CD        79.7510    7.0880   -9.5790 C.3    89  LYS89       0.0206
     86  CE        79.5580    8.5390   -9.1190 C.3    89  LYS89       0.1093
     87  NZ        80.7090    9.4020   -9.4750 N.3    89  LYS89      -0.1314
     88  N         77.1760    8.6390  -14.0780 N.am   90  SER90      -0.1936
     89  CA        75.9260    9.0020  -14.7240 C.3    90  SER90       0.2055
     90  C         75.9150    8.7180  -16.2100 C.2    90  SER90       0.2643
     91  O         74.9130    8.2660  -16.7590 O.2    90  SER90      -0.2714
     92  CB        75.6360   10.4720  -14.5120 C.3    90  SER90       0.2130
     93  OG        74.7720   10.6220  -13.4100 O.3    90  SER90      -0.2179
     94  N         77.0400    9.0080  -16.8510 N.am   91  TYR91      -0.1973
     95  CA        77.2110    8.8090  -18.2740 C.3    91  TYR91       0.1639
     96  C         77.0610    7.3270  -18.5870 C.2    91  TYR91       0.2290
     97  O         76.3310    6.9420  -19.5040 O.2    91  TYR91      -0.2864
     98  CB        78.6010    9.3060  -18.6760 C.3    91  TYR91       0.0560
     99  CG        79.0350    8.9180  -20.0670 C.ar   91  TYR91      -0.0198
    100  CD1       78.5310    9.5770  -21.1960 C.ar   91  TYR91      -0.0009
    101  CD2       79.9590    7.8860  -20.2590 C.ar   91  TYR91      -0.0009
    102  CE1       78.9430    9.2200  -22.4790 C.ar   91  TYR91       0.0417
    103  CE2       80.3680    7.5160  -21.5360 C.ar   91  TYR91       0.0417
    104  CZ        79.8650    8.1900  -22.6400 C.ar   91  TYR91       0.1957
    105  OH        80.3080    7.8680  -23.8960 O.3    91  TYR91      -0.2866
    106  N         76.7910    7.0760  -27.6170 N.3   105  HIS105     -0.1241
    107  CA        76.9890    7.6090  -26.2800 C.3   105  HIS105      0.1621
    108  C         75.8980    7.1790  -25.3030 C.2   105  HIS105      0.2264
    109  O         75.9770    7.4850  -24.1150 O.2   105  HIS105     -0.2867
    110  CB        77.0670    9.1290  -26.3350 C.3   105  HIS105      0.0745
    111  CG        78.3260    9.6400  -26.9560 C.ar  105  HIS105      0.0817
    112  ND1       79.5620    9.5010  -26.3590 N.ar  105  HIS105     -0.2268
    113  CD2       78.5470   10.2630  -28.1380 C.ar  105  HIS105      0.1154
    114  CE1       80.4890   10.0140  -27.1480 C.ar  105  HIS105      0.1986
    115  NE2       79.9000   10.4820  -28.2340 N.ar  105  HIS105     -0.2212
    116  N         73.6810   17.1850   -3.6590 N.3   192  ARG192     -0.1245
    117  CA        74.0000   15.9830   -4.4200 C.3   192  ARG192      0.1563
    118  C         73.1920   14.7880   -3.9260 C.2   192  ARG192      0.2260
    119  O         72.9590   14.6370   -2.7260 O.2   192  ARG192     -0.2867
    120  CB        75.4970   15.6760   -4.3350 C.3   192  ARG192      0.0307
    121  CG        76.3560   16.5150   -5.2670 C.3   192  ARG192      0.0489
    122  CD        76.9280   15.6740   -6.3960 C.3   192  ARG192      0.2205
    123  NE        75.9240   15.3620   -7.4090 N.pl3 192  ARG192     -0.0865
    124  CZ        75.8250   14.1890   -8.0260 C.cat 192  ARG192      0.5346
    125  NH1       74.8800   13.9930   -8.9350 N.pl3 192  ARG192      0.1354
    126  NH2       76.6710   13.2100   -7.7340 N.pl3 192  ARG192      0.1354
    127  N         72.5620    4.9250   -9.7100 N.3   214  ASP214     -0.1225
    128  CA        73.5360    5.9600  -10.0170 C.3   214  ASP214      0.1805
    129  C         73.8660    6.7610   -8.7550 C.2   214  ASP214      0.2598
    130  O         73.2060    7.7540   -8.4310 O.2   214  ASP214     -0.2718
    131  CB        72.9490    6.8720  -11.0820 C.3   214  ASP214      0.1424
    132  CG        73.9710    7.8090  -11.7000 C.2   214  ASP214      0.3668
    133  OD1       73.5310    8.7350  -12.4160 O.co2 214  ASP214     -0.2456
    134  OD2       75.1860    7.6280  -11.4900 O.co2 214  ASP214     -0.2456
    135  N         74.8970    6.3200   -8.0430 N.am  215  LEU215     -0.1966
    136  CA        75.3560    7.0160   -6.8470 C.3   215  LEU215      0.1728
    137  C         76.1350    8.2770   -7.2070 C.2   215  LEU215      0.2616
    138  O         76.9570    8.2700   -8.1230 O.2   215  LEU215     -0.2715
    139  CB        76.2220    6.0920   -5.9870 C.3   215  LEU215      0.0311
    140  CG        75.5390    5.4610   -4.7720 C.3   215  LEU215      0.0022
    141  CD1       74.1080    5.0670   -5.1040 C.3   215  LEU215      0.0001
    142  CD2       76.3280    4.2590   -4.2760 C.3   215  LEU215      0.0001
    143  N         75.8690    9.3580   -6.4820 N.am  216  ALA216     -0.1963
    144  CA        76.6160   10.5980   -6.6520 C.3   216  ALA216      0.1728
    145  C         78.0000   10.5000   -6.0180 C.2   216  ALA216      0.2616
    146  O         78.1790    9.8400   -4.9950 O.2   216  ALA216     -0.2715
    147  CB        75.8430   11.7690   -6.0640 C.3   216  ALA216      0.0334
    148  N         78.9760   11.1600   -6.6340 N.am  217  GLY217     -0.1955
    149  CA        80.3000   11.2790   -6.0520 C.3   217  GLY217      0.1869
    150  C         80.3870   12.3970   -5.0310 C.2   217  GLY217      0.2309
    151  O         79.8160   13.4710   -5.2220 O.2   217  GLY217     -0.2863
@<TRIPOS>BOND
     1   115   113   ar
     2   115   114   ar
     3   113   111   ar
     4   106   107    1
     5   114   112   ar
     6   111   112   ar
     7   111   110    1
     8   110   107    1
     9   107   108    1
    10   108   109    2
    11    51    50    1
    12    51    52    2
    13    50    49    1
    14    50    53    1
    15   105   104    1
    16    56    54    1
    17    55    53    1
    18    47    46    2
    19    53    54    1
    20   104   102   ar
    21   104   103   ar
    22   102   100   ar
    23    46    45    1
    24    42    41    1
    25    11     9    1
    26   103   101   ar
    27    41    40    2
    28    41    43    1
    29   100    99   ar
    30    30    31    1
    31    30    27    1
    32    40    39    1
    33    45    48    1
    34    45    44    1
    35    35    34    1
    36    35    36    2
    37     9    10    1
    38     9     8    2
    39   101    99   ar
    40    31    32    1
    41    34    33    1
    42    34    37    1
    43    99    98    1
    44    27    28    1
    45    27    26    1
    46    39    38    1
    47    38    37    1
    48     8     7    1
    49    97    96    2
    50    28    29    2
    51    32    26    1
    52    26    23   am
    53    19    18   ar
    54    98    95    1
    55    96    95    1
    56    95    94    1
    57     7     6    1
    58    15    14    2
    59    23    24    2
    60    23    22    1
    61    18    20   ar
    62    18    17    1
    63     6     5    1
    64    17    16    1
    65    14    21   am
    66    14    13    1
    67    22    21    1
    68    22    25    1
    69    94    90   am
    70    16    13    1
    71    91    90    2
    72     5     2    1
    73    12    13    1
    74    12     3   am
    75    90    89    1
    76    78    77    2
    77     2     3    1
    78     2     1    1
    79    76    77    1
    80    76    75    1
    81     3     4    2
    82    77    79   am
    83    71    70    2
    84    89    92    1
    85    89    88    1
    86    75    70   am
    87    82    81    2
    88    92    93    1
    89    70    69    1
    90    88    81   am
    91    81    80    1
    92    67    66    2
    93    79    80    1
    94    80    83    1
    95    69    68    1
    96    69    72    1
    97    66    68   am
    98    66    65    1
    99    65    64    1
   100   133   132   ar
   101    72    74    1
   102    72    73    1
   103    83    84    1
   104   132   134   ar
   105   132   131    1
   106    64    59   am
   107   131   128    1
   108    84    85    1
   109    60    59    2
   110    59    58    1
   111   128   127    1
   112   128   129    1
   113    85    86    1
   114    87    86    1
   115    62    61    1
   116   125   124    1
   117   129   130    2
   118   129   135   am
   119    58    61    1
   120    58    57    1
   121   138   137    2
   122    61    63    1
   123   135   136    1
   124   124   126    1
   125   124   123    2
   126   123   122    1
   127   137   136    1
   128   137   143   am
   129   136   139    1
   130   144   143    1
   131   144   147    1
   132   144   145    1
   133   148   149    1
   134   148   145   am
   135   122   121    1
   136   149   150    1
   137   145   146    2
   138   139   140    1
   139   121   120    1
   140   151   150    2
   141   141   140    1
   142   140   142    1
   143   117   120    1
   144   117   118    1
   145   117   116    1
   146   118   119    2
