@<TRIPOS>MOLECULE
tmp/3dcjA00.pdb
 166 163 0 0 0
SMALL
GASTEIGER

@<TRIPOS>ATOM
      1  N         15.1080   11.1120    4.1690 N.3    93  SER93      -0.1217
      2  CA        14.2720   10.7500    5.3150 C.3    93  SER93       0.1889
      3  C         14.0070   12.0020    6.1550 C.2    93  SER93       0.2288
      4  O         14.9230   12.5250    6.7980 O.2    93  SER93      -0.2866
      5  CB        14.8890    9.7060    6.2010 C.3    93  SER93       0.2089
      6  OG        14.0490    9.6470    7.3210 O.3    93  SER93      -0.2183
      7  N         11.5540   13.0430    8.8490 N.3    95  GLY95      -0.1210
      8  CA        10.5920   12.7050    9.8780 C.3    95  GLY95       0.1956
      9  C         10.1040   11.2830    9.6930 C.2    95  GLY95       0.2612
     10  O          9.0200   10.9440   10.1700 O.2    95  GLY95      -0.2717
     11  N         10.8620   10.4450    8.9860 N.am   96  PHE96      -0.1962
     12  CA        10.4120    9.0330    8.7880 C.3    96  PHE96       0.1771
     13  C         10.6890    8.1940   10.0370 C.2    96  PHE96       0.2619
     14  O         11.7670    8.2680   10.6280 O.2    96  PHE96      -0.2715
     15  CB        11.1230    8.4160    7.5830 C.3    96  PHE96       0.0574
     16  CG        10.4850    7.1480    7.0640 C.ar   96  PHE96      -0.0200
     17  CD1        9.1550    7.1160    6.7020 C.ar   96  PHE96      -0.0042
     18  CD2       11.2250    6.0030    6.9020 C.ar   96  PHE96      -0.0042
     19  CE1        8.5550    5.9290    6.1860 C.ar   96  PHE96      -0.0003
     20  CE2       10.6230    4.8260    6.3690 C.ar   96  PHE96      -0.0003
     21  CZ         9.2790    4.8110    6.0290 C.ar   96  PHE96      -0.0000
     22  N          9.7470    7.3490   10.3970 N.am   97  MET97      -0.1963
     23  CA         9.8220    6.6480   11.6740 C.3    97  MET97       0.1736
     24  C         10.0580    5.1620   11.6740 C.2    97  MET97       0.2616
     25  O          9.9020    4.5200   12.6880 O.2    97  MET97      -0.2715
     26  CB         8.5830    6.9760   12.4740 C.3    97  MET97       0.0427
     27  CG         8.4280    8.4550   12.6100 C.3    97  MET97       0.0599
     28  SD         7.4880    8.8170   14.0020 S.3    97  MET97      -0.1393
     29  CE         5.9000    9.0290   13.3030 C.3    97  MET97       0.0692
     30  N         10.4150    4.5960   10.5430 N.am   98  ARG98      -0.1963
     31  CA        10.8010    3.2260   10.4530 C.3    98  ARG98       0.1729
     32  C         12.2570    3.1980   10.1010 C.2    98  ARG98       0.2616
     33  O         12.7270    4.0350    9.3320 O.2    98  ARG98      -0.2715
     34  CB        10.0460    2.5470    9.3500 C.3    98  ARG98       0.0348
     35  CG         8.5570    2.6420    9.4980 C.3    98  ARG98       0.0492
     36  CD         8.0090    1.5610   10.3680 C.3    98  ARG98       0.2205
     37  NE         6.5540    1.6830   10.4520 N.pl3  98  ARG98      -0.0865
     38  CZ         5.8610    1.3410   11.5260 C.cat  98  ARG98       0.5346
     39  NH1        6.5120    0.8530   12.5440 N.pl3  98  ARG98       0.1354
     40  NH2        4.5490    1.4810   11.5740 N.pl3  98  ARG98       0.1354
     41  N         12.9650    2.2150   10.6630 N.am   99  ILE99      -0.1963
     42  CA        14.3430    1.9280   10.3000 C.3    99  ILE99       0.1727
     43  C         14.3430    1.3560    8.9270 C.2    99  ILE99       0.2616
     44  O         13.5890    0.4460    8.6450 O.2    99  ILE99      -0.2715
     45  CB        15.0050    0.9640   11.3430 C.3    99  ILE99       0.0290
     46  CG1       15.3270    1.7740   12.6250 C.3    99  ILE99       0.0022
     47  CG2       16.2630    0.2800   10.7570 C.3    99  ILE99       0.0023
     48  CD1       15.7200    0.9540   13.7890 C.3    99  ILE99       0.0001
     49  N         15.1560    1.9420    8.0540 N.am  100  LEU100     -0.1977
     50  CA        15.3400    1.4190    6.7180 C.3   100  LEU100      0.1596
     51  C         16.2740    0.2400    6.8240 C.2   100  LEU100      0.2287
     52  O         17.3960    0.3570    7.4020 O.2   100  LEU100     -0.2864
     53  CB        15.8590    2.4870    5.7610 C.3   100  LEU100      0.0297
     54  CG        14.9760    3.7650    5.7110 C.3   100  LEU100      0.0022
     55  CD1       15.7730    5.0090    5.1170 C.3   100  LEU100      0.0001
     56  CD2       13.7770    3.4620    4.9020 C.3   100  LEU100      0.0001
     57  N         18.6920   -0.4420    1.8540 N.3   105  LEU105     -0.1245
     58  CA        20.0550    0.1350    1.8300 C.3   105  LEU105      0.1561
     59  C         20.9330   -0.5590    0.7850 C.2   105  LEU105      0.2260
     60  O         21.8310    0.0460    0.1940 O.2   105  LEU105     -0.2867
     61  CB        20.7170    0.0320    3.2200 C.3   105  LEU105      0.0270
     62  CG        20.0900    1.0410    4.1950 C.3   105  LEU105      0.0019
     63  CD1       20.5190    0.7390    5.6060 C.3   105  LEU105      0.0001
     64  CD2       20.4440    2.4540    3.8140 C.3   105  LEU105      0.0001
     65  N         19.6810   11.9870    5.9400 N.3   114  ASN114     -0.1225
     66  CA        18.8760   12.3630    7.0950 C.3   114  ASN114      0.1785
     67  C         19.5060   13.6230    7.6960 C.2   114  ASN114      0.2598
     68  O         20.6740   13.8880    7.4370 O.2   114  ASN114     -0.2718
     69  CB        18.9060   11.2120    8.0980 C.3   114  ASN114      0.1169
     70  CG        18.1350   11.4960    9.3740 C.2   114  ASN114      0.2627
     71  OD1       18.6260   11.2310   10.4870 O.2   114  ASN114     -0.2716
     72  ND2       16.9180   11.9620    9.2310 N.am  114  ASN114     -0.0877
     73  N         18.7540   14.3760    8.5070 N.am  115  THR115     -0.1939
     74  CA        19.3090   15.5580    9.1970 C.3   115  THR115      0.2028
     75  C         19.1980   15.3230   10.6770 C.2   115  THR115      0.2642
     76  O         18.2740   14.6520   11.1190 O.2   115  THR115     -0.2714
     77  CB        18.4870   16.8110    8.9260 C.3   115  THR115      0.1808
     78  OG1       17.1350   16.5390    9.3390 O.3   115  THR115     -0.2208
     79  CG2       18.5230   17.1850    7.4470 C.3   115  THR115      0.0379
     80  N         20.0730   15.9060   11.4660 N.am  116  HIS116     -0.1959
     81  CA        19.9980   15.7050   12.9260 C.3   116  HIS116      0.1772
     82  C         20.3430   17.0080   13.6410 C.2   116  HIS116      0.2462
     83  O         21.2440   17.7020   13.1910 O.2   116  HIS116     -0.2730
     84  CB        20.9450   14.5860   13.3160 C.3   116  HIS116      0.0785
     85  CG        20.9240   14.2610   14.7710 C.ar  116  HIS116      0.0821
     86  ND1       19.9900   13.4170   15.3260 N.ar  116  HIS116     -0.2267
     87  CD2       21.7270   14.6600   15.7850 C.ar  116  HIS116      0.1154
     88  CE1       20.2030   13.3220   16.6250 C.ar  116  HIS116      0.1986
     89  NE2       21.2590   14.0550   16.9270 N.ar  116  HIS116     -0.2212
     90  N         19.6170   17.3710   14.7270 N.am  117  PRO117     -0.2727
     91  CA        19.8790   18.7080   15.3350 C.3   117  PRO117      0.1402
     92  C         20.9550   18.7150   16.4610 C.2   117  PRO117      0.2269
     93  O         20.6940   19.1370   17.6160 O.2   117  PRO117     -0.2865
     94  CB        18.4910   19.1300   15.8550 C.3   117  PRO117      0.0296
     95  CG        17.8080   17.7070   16.3150 C.3   117  PRO117      0.0237
     96  CD        18.5100   16.6370   15.4150 C.3   117  PRO117      0.0939
     97  N         20.2270   10.3410   19.0580 N.3   125  GLY125     -0.1210
     98  CA        18.9750    9.9960   19.7840 C.3   125  GLY125      0.1956
     99  C         17.8890   11.0390   19.5810 C.2   125  GLY125      0.2612
    100  O         18.0510   11.9160   18.7650 O.2   125  GLY125     -0.2717
    101  N         16.7890   10.9590   20.3330 N.am  126  THR126     -0.1952
    102  CA        15.6310   11.7720   19.9910 C.3   126  THR126      0.1897
    103  C         15.6600   13.0740   20.7870 C.2   126  THR126      0.2313
    104  O         14.8780   14.0040   20.5160 O.2   126  THR126     -0.2863
    105  CB        14.2590   11.0200   20.2870 C.3   126  THR126      0.1794
    106  OG1       14.3820   10.3570   21.5260 O.3   126  THR126     -0.2208
    107  CG2       13.8980    9.9860   19.1720 C.3   126  THR126      0.0378
    108  N         23.6700   13.8080    7.0160 N.3   145  HIS145     -0.1241
    109  CA        24.4980   12.6260    6.8150 C.3   145  HIS145      0.1621
    110  C         23.7200   11.5860    6.0120 C.2   145  HIS145      0.2264
    111  O         22.4800   11.5700    6.0360 O.2   145  HIS145     -0.2867
    112  CB        24.9430   12.0490    8.1600 C.3   145  HIS145      0.0745
    113  CG        23.8520   11.3860    8.9260 C.ar  145  HIS145      0.0817
    114  ND1       23.4230   10.1020    8.9340 N.ar  145  HIS145     -0.2268
    115  CD2       23.0270   12.0730    9.8010 C.ar  145  HIS145      0.1154
    116  CE1       22.3750   10.0350    9.8240 C.ar  145  HIS145      0.1986
    117  NE2       22.1500   11.2330   10.3270 N.ar  145  HIS145     -0.2212
    118  N         22.3050    7.9960    5.3990 N.3   147  VAL147     -0.1231
    119  CA        21.7470    6.9040    6.1910 C.3   147  VAL147      0.1692
    120  C         22.4900    5.5590    5.9280 C.2   147  VAL147      0.2592
    121  O         22.6860    5.1370    4.7470 O.2   147  VAL147     -0.2718
    122  CB        20.2570    6.7500    5.8630 C.3   147  VAL147      0.0266
    123  CG1       19.7410    5.4550    6.4090 C.3   147  VAL147      0.0020
    124  CG2       19.4580    7.9360    6.4400 C.3   147  VAL147      0.0020
    125  N         22.9420    4.9310    7.0160 N.am  148  ASP148     -0.1960
    126  CA        23.5230    3.5720    6.9260 C.3   148  ASP148      0.1840
    127  C         22.7010    2.6620    7.8020 C.2   148  ASP148      0.2622
    128  O         21.5730    3.0020    8.1010 O.2   148  ASP148     -0.2715
    129  CB        25.0480    3.5020    7.2140 C.3   148  ASP148      0.1450
    130  CG        25.4220    3.8290    8.6730 C.2   148  ASP148      0.3671
    131  OD1       24.5450    3.9050    9.5920 O.co2 148  ASP148     -0.2456
    132  OD2       26.6420    4.0040    8.9040 O.co2 148  ASP148     -0.2456
    133  N         23.2690    1.5440    8.2380 N.am  149  ALA149     -0.1963
    134  CA        22.4890    0.5120    8.8980 C.3   149  ALA149      0.1728
    135  C         22.0690    0.8990   10.3160 C.2   149  ALA149      0.2617
    136  O         21.0010    0.4640   10.7880 O.2   149  ALA149     -0.2715
    137  CB        23.2580   -0.8760    8.8490 C.3   149  ALA149      0.0334
    138  N         22.9070    1.6980   10.9890 N.am  150  GLY150     -0.1940
    139  CA        22.6060    2.2540   12.3140 C.3   150  GLY150      0.2014
    140  C         21.7840    3.5380   12.2490 C.2   150  GLY150      0.2640
    141  O         21.4910    4.0390   11.1690 O.2   150  GLY150     -0.2714
    142  N         21.3500    4.0650   13.3800 N.am  151  THR151     -0.1936
    143  CA        20.6200    5.3500   13.3280 C.3   151  THR151      0.2028
    144  C         21.5800    6.4430   13.7820 C.2   151  THR151      0.2642
    145  O         22.3430    6.2360   14.7230 O.2   151  THR151     -0.2714
    146  CB        19.3560    5.3550   14.1990 C.3   151  THR151      0.1808
    147  OG1       19.7410    5.1870   15.5680 O.3   151  THR151     -0.2208
    148  CG2       18.3830    4.2240   13.7580 C.3   151  THR151      0.0379
    149  N         21.5880    7.5710   13.0810 N.am  152  ASP152     -0.1971
    150  CA        22.5240    8.6720   13.3850 C.3   152  ASP152      0.1709
    151  C         23.9910    8.3240   13.1430 C.2   152  ASP152      0.2293
    152  O         24.8670    8.9910   13.6870 O.2   152  ASP152     -0.2864
    153  CB        22.3270    9.1600   14.8440 C.3   152  ASP152      0.1436
    154  CG        20.9000    9.6550   15.1010 C.2   152  ASP152      0.3671
    155  OD1       20.2710   10.1350   14.1250 O.co2 152  ASP152     -0.2456
    156  OD2       20.4080    9.5650   16.2480 O.co2 152  ASP152     -0.2456
    157  N         16.0310   24.6910   20.0110 N.3   174  HIS174     -0.1241
    158  CA        15.6360   23.8010   18.8980 C.3   174  HIS174      0.1621
    159  C         15.3260   24.6220   17.6690 C.2   174  HIS174      0.2264
    160  O         15.8450   24.3390   16.5910 O.2   174  HIS174     -0.2867
    161  CB        14.4030   22.9080   19.2270 C.3   174  HIS174      0.0745
    162  CG        14.3760   21.6070   18.4580 C.ar  174  HIS174      0.0817
    163  ND1       13.9590   20.4140   19.0220 N.ar  174  HIS174     -0.2268
    164  CD2       14.8020   21.3000   17.1970 C.ar  174  HIS174      0.1154
    165  CE1       14.0890   19.4410   18.1250 C.ar  174  HIS174      0.1986
    166  NE2       14.6100   19.9500   17.0190 N.ar  174  HIS174     -0.2212
@<TRIPOS>BOND
     1    60    59    2
     2    59    58    1
     3    58    57    1
     4    58    61    1
     5    61    62    1
     6    64    62    1
     7     1     2    1
     8    62    63    1
     9   121   120    2
    10    56    54    1
    11    55    54    1
    12     2     3    1
    13     2     5    1
    14   118   119    1
    15    54    53    1
    16    53    50    1
    17   122   119    1
    18   122   123    1
    19   122   124    1
    20   120   119    1
    21   120   125   am
    22    65    66    1
    23   110   111    2
    24   110   109    1
    25    21    19   ar
    26    21    20   ar
    27     3     4    2
    28    19    17   ar
    29     5     6    1
    30    20    18   ar
    31    17    16   ar
    32    50    51    1
    33    50    49    1
    34   109   108    1
    35   109   112    1
    36    51    52    2
    37    18    16   ar
    38   126   125    1
    39   126   129    1
    40   126   127    1
    41    16    15    1
    42    66    67    1
    43    66    69    1
    44   129   130    1
    45    68    67    2
    46    79    77    1
    47    15    12    1
    48    67    73   am
    49   127   128    2
    50   127   133   am
    51    49    43   am
    52    69    70    1
    53   112   113    1
    54   133   134    1
    55    73    74    1
    56    44    43    2
    57   130   132   ar
    58   130   131   ar
    59    12    11    1
    60    12    13    1
    61   137   134    1
    62     7     8    1
    63   134   135    1
    64    77    74    1
    65    77    78    1
    66   113   114   ar
    67   113   115   ar
    68    43    42    1
    69   114   116   ar
    70    11     9   am
    71    74    75    1
    72    72    70   am
    73    33    32    2
    74    34    35    1
    75    34    31    1
    76    70    71    2
    77    35    36    1
    78     9     8    1
    79     9    10    2
    80   115   117   ar
    81   116   117   ar
    82    13    22   am
    83    13    14    2
    84    32    31    1
    85    32    41   am
    86    42    41    1
    87    42    45    1
    88   135   136    2
    89   135   138   am
    90    36    37    1
    91    22    23    1
    92    37    38    2
    93    31    30    1
    94    30    24   am
    95    75    76    2
    96    75    80   am
    97    47    45    1
    98   138   139    1
    99   141   140    2
   100    45    46    1
   101    80    81    1
   102    38    40    1
   103    38    39    1
   104    23    24    1
   105    23    26    1
   106    24    25    2
   107   140   139    1
   108   140   142   am
   109    26    27    1
   110    27    28    1
   111    46    48    1
   112    81    84    1
   113    81    82    1
   114   149   150    1
   115   149   144   am
   116   151   150    1
   117   151   152    2
   118    83    82    2
   119    29    28    1
   120    84    85    1
   121   143   142    1
   122   143   144    1
   123   143   146    1
   124   150   153    1
   125    82    90   am
   126   148   146    1
   127   144   145    2
   128   155   154   ar
   129   146   147    1
   130    90    91    1
   131    90    96    1
   132    85    86   ar
   133    85    87   ar
   134   153   154    1
   135   154   156   ar
   136    86    88   ar
   137    91    94    1
   138    91    92    1
   139    96    95    1
   140    87    89   ar
   141    94    95    1
   142    92    93    2
   143   160   159    2
   144    88    89   ar
   145   166   164   ar
   146   166   165   ar
   147   164   162   ar
   148   159   158    1
   149   165   163   ar
   150   162   163   ar
   151   162   161    1
   152   100    99    2
   153   158   161    1
   154   158   157    1
   155    97    98    1
   156   107   105    1
   157    99    98    1
   158    99   101   am
   159   102   105    1
   160   102   101    1
   161   102   103    1
   162   105   106    1
   163   104   103    2
