@<TRIPOS>MOLECULE
tmp/3dcjB00.pdb
 123 117 0 0 0
SMALL
GASTEIGER

@<TRIPOS>ATOM
      1  N          1.9730   -6.9400   27.2080 N.3    92  SER92      -0.1217
      2  CA         1.3410   -8.0890   27.8430 C.3    92  SER92       0.1889
      3  C          1.1060   -7.7740   29.3470 C.2    92  SER92       0.2288
      4  O          2.0630   -7.5510   30.1590 O.2    92  SER92      -0.2866
      5  CB         2.2460   -9.2980   27.6890 C.3    92  SER92       0.2089
      6  OG         1.6190  -10.2940   28.4050 O.3    92  SER92      -0.2183
      7  N         -1.4810  -11.3880   30.5930 N.3    95  PHE95      -0.1227
      8  CA        -2.0660  -12.1080   29.4840 C.3    95  PHE95       0.1736
      9  C         -1.7110  -13.5630   29.6780 C.2    95  PHE95       0.2595
     10  O         -0.5350  -13.8850   29.9880 O.2    95  PHE95      -0.2718
     11  CB        -1.5740  -11.5730   28.1450 C.3    95  PHE95       0.0547
     12  CG        -2.1850  -12.2780   26.9660 C.ar   95  PHE95      -0.0202
     13  CD1       -3.5210  -12.0800   26.6400 C.ar   95  PHE95      -0.0042
     14  CD2       -1.4250  -13.1560   26.1750 C.ar   95  PHE95      -0.0042
     15  CE1       -4.0750  -12.7080   25.5080 C.ar   95  PHE95      -0.0003
     16  CE2       -2.0140  -13.7880   25.0560 C.ar   95  PHE95      -0.0003
     17  CZ        -3.3340  -13.5460   24.7300 C.ar   95  PHE95      -0.0000
     18  N         -2.6840  -14.4650   29.5750 N.am   96  MET96      -0.1965
     19  CA        -2.3820  -15.8260   30.1180 C.3    96  MET96       0.1736
     20  C         -2.0740  -16.8860   29.0400 C.2    96  MET96       0.2616
     21  O         -2.1500  -18.0900   29.2700 O.2    96  MET96      -0.2715
     22  CB        -3.4720  -16.3170   31.0830 C.3    96  MET96       0.0427
     23  CG        -3.4090  -15.6050   32.4540 C.3    96  MET96       0.0599
     24  SD        -4.9970  -15.6200   33.3370 S.3    96  MET96      -0.1393
     25  CE        -4.8590  -14.0890   34.3600 C.3    96  MET96       0.0692
     26  N         -1.7150  -16.4630   27.8540 N.am   97  ARG97      -0.1963
     27  CA        -1.3820  -17.4670   26.8770 C.3    97  ARG97       0.1729
     28  C         -0.0460  -17.1450   26.2700 C.2    97  ARG97       0.2616
     29  O          0.2920  -15.9580   26.0840 O.2    97  ARG97      -0.2715
     30  CB        -2.4900  -17.5790   25.8410 C.3    97  ARG97       0.0348
     31  CG        -3.6580  -18.4290   26.3860 C.3    97  ARG97       0.0492
     32  CD        -4.6110  -18.7980   25.3600 C.3    97  ARG97       0.2205
     33  NE        -5.9530  -18.9620   25.9210 N.pl3  97  ARG97      -0.0865
     34  CZ        -6.3590  -20.0590   26.5210 C.cat  97  ARG97       0.5346
     35  NH1       -5.4980  -21.0660   26.6830 N.pl3  97  ARG97       0.1354
     36  NH2       -7.6000  -20.1410   27.0010 N.pl3  97  ARG97       0.1354
     37  N          0.7110  -18.2010   25.9780 N.am   98  ILE98      -0.1963
     38  CA         1.9540  -18.0820   25.2240 C.3    98  ILE98       0.1727
     39  C          1.5930  -17.4520   23.8960 C.2    98  ILE98       0.2616
     40  O          0.6490  -17.8970   23.2030 O.2    98  ILE98      -0.2715
     41  CB         2.6290  -19.4770   25.0690 C.3    98  ILE98       0.0290
     42  CG1        3.1410  -19.9860   26.4350 C.3    98  ILE98       0.0022
     43  CG2        3.7410  -19.4980   23.9210 C.3    98  ILE98       0.0023
     44  CD1        4.4120  -19.1390   26.9740 C.3    98  ILE98       0.0001
     45  N          2.2900  -16.3760   23.5560 N.am   99  LEU99      -0.1977
     46  CA         2.1260  -15.7470   22.2110 C.3    99  LEU99       0.1596
     47  C          2.9890  -16.5270   21.2060 C.2    99  LEU99       0.2287
     48  O          4.2030  -16.7930   21.4700 O.2    99  LEU99      -0.2864
     49  CB         2.4470  -14.2190   22.2300 C.3    99  LEU99       0.0297
     50  CG         1.4750  -13.3640   23.0520 C.3    99  LEU99       0.0022
     51  CD1        2.0780  -12.0450   23.5050 C.3    99  LEU99       0.0001
     52  CD2        0.1680  -13.0910   22.2770 C.3    99  LEU99       0.0001
     53  N          4.8150  -13.5090   17.1480 N.3   104  LEU104     -0.1245
     54  CA         6.1990  -13.0060   17.3100 C.3   104  LEU104      0.1561
     55  C          6.8870  -12.6250   15.9840 C.2   104  LEU104      0.2260
     56  O          7.7130  -11.7300   15.9330 O.2   104  LEU104     -0.2867
     57  CB         7.0610  -13.9290   18.2040 C.3   104  LEU104      0.0270
     58  CG         6.4650  -13.9160   19.6370 C.3   104  LEU104      0.0019
     59  CD1        7.1370  -14.9150   20.4810 C.3   104  LEU104      0.0001
     60  CD2        6.4590  -12.4890   20.3430 C.3   104  LEU104      0.0001
     61  N          6.5350   -7.3940   28.5140 N.3   113  ASN113     -0.1240
     62  CA         5.7660   -8.0050   29.5860 C.3   113  ASN113      0.1653
     63  C          6.4200   -7.5600   30.8750 C.2   113  ASN113      0.2266
     64  O          7.6140   -7.2950   30.8850 O.2   113  ASN113     -0.2867
     65  CB         5.9060   -9.5270   29.4850 C.3   113  ASN113      0.1155
     66  CG         5.2550  -10.2570   30.6790 C.2   113  ASN113      0.2627
     67  OD1        5.9340  -10.9780   31.4700 O.2   113  ASN113     -0.2716
     68  ND2        3.9710  -10.0450   30.8400 N.am  113  ASN113     -0.0877
     69  N          7.9800  -18.0980   34.7890 N.3   124  GLY124     -0.1210
     70  CA         6.7360  -18.8560   34.7610 C.3   124  GLY124      0.1956
     71  C          5.5860  -18.0890   35.4300 C.2   124  GLY124      0.2612
     72  O          5.6640  -16.8620   35.5880 O.2   124  GLY124     -0.2717
     73  N          4.5260  -18.7930   35.8210 N.am  125  THR125     -0.1952
     74  CA         3.2930  -18.1460   36.1960 C.3   125  THR125      0.1897
     75  C          3.1280  -18.0690   37.7160 C.2   125  THR125      0.2313
     76  O          2.2100  -17.3910   38.2180 O.2   125  THR125     -0.2863
     77  CB         2.0740  -18.8670   35.5600 C.3   125  THR125      0.1794
     78  OG1        2.1260  -20.2720   35.8830 O.3   125  THR125     -0.2208
     79  CG2        2.1060  -18.7120   34.0330 C.3   125  THR125      0.0378
     80  N         10.5040   -7.0840   30.4510 N.3   144  HIS144     -0.1241
     81  CA        11.3310   -7.6950   29.4220 C.3   144  HIS144      0.1621
     82  C         10.6320   -7.7920   28.0950 C.2   144  HIS144      0.2264
     83  O          9.3890   -7.7830   28.0340 O.2   144  HIS144     -0.2867
     84  CB        11.7900   -9.0910   29.8690 C.3   144  HIS144      0.0745
     85  CG        10.6870  -10.0990   29.9500 C.ar  144  HIS144      0.0817
     86  ND1       10.2760  -11.0360   29.0630 N.ar  144  HIS144     -0.2268
     87  CD2        9.8590  -10.2190   31.0540 C.ar  144  HIS144      0.1154
     88  CE1        9.2230  -11.7000   29.6430 C.ar  144  HIS144      0.1986
     89  NE2        8.9950  -11.1980   30.8500 N.ar  144  HIS144     -0.2212
     90  N          9.1700   -9.8000   24.9570 N.3   146  VAL146     -0.1231
     91  CA         8.6150  -11.1680   24.9190 C.3   146  VAL146      0.1692
     92  C          9.2800  -11.9280   23.7680 C.2   146  VAL146      0.2592
     93  O          9.3970  -11.3510   22.6830 O.2   146  VAL146     -0.2718
     94  CB         7.0700  -11.1110   24.7540 C.3   146  VAL146      0.0266
     95  CG1        6.4450  -12.4650   24.4040 C.3   146  VAL146      0.0020
     96  CG2        6.4330  -10.5210   26.0360 C.3   146  VAL146      0.0020
     97  N          9.7370  -13.1810   23.9990 N.am  147  ASP147     -0.1974
     98  CA        10.2020  -13.9920   22.8830 C.3   147  ASP147      0.1709
     99  C          9.6360  -15.4050   22.8740 C.2   147  ASP147      0.2293
    100  O          8.6760  -15.7080   23.6200 O.2   147  ASP147     -0.2864
    101  CB        11.7260  -13.9400   22.7110 C.3   147  ASP147      0.1436
    102  CG        12.4650  -14.5130   23.8720 C.2   147  ASP147      0.3671
    103  OD1       11.8060  -14.7840   24.8910 O.co2 147  ASP147     -0.2456
    104  OD2       13.6970  -14.6760   23.7680 O.co2 147  ASP147     -0.2456
    105  N          8.1950  -18.9660   22.9650 N.3   149  GLY149     -0.1210
    106  CA         7.5820  -19.6710   24.0650 C.3   149  GLY149      0.1956
    107  C          7.9960  -19.2030   25.4450 C.2   149  GLY149      0.2613
    108  O          7.8650  -18.0190   25.8280 O.2   149  GLY149     -0.2717
    109  N          8.5220  -20.1610   26.1860 N.am  150  THR150     -0.1938
    110  CA         8.9290  -19.9420   27.5580 C.3   150  THR150      0.2028
    111  C         10.1570  -18.9930   27.7590 C.2   150  THR150      0.2642
    112  O         10.3120  -18.4120   28.8430 O.2   150  THR150     -0.2714
    113  CB         9.0040  -21.3540   28.2800 C.3   150  THR150      0.1808
    114  OG1        8.6230  -21.1850   29.6370 O.3   150  THR150     -0.2208
    115  CG2       10.3810  -22.0710   28.1530 C.3   150  THR150      0.0379
    116  N         10.9710  -18.7930   26.7060 N.am  151  ASP151     -0.1971
    117  CA        12.2630  -18.0170   26.7730 C.3   151  ASP151      0.1709
    118  C         12.1180  -16.6150   27.2360 C.2   151  ASP151      0.2293
    119  O         11.1090  -15.9660   26.9760 O.2   151  ASP151     -0.2864
    120  CB        12.9770  -17.9550   25.4030 C.3   151  ASP151      0.1436
    121  CG        13.3520  -19.3360   24.8780 C.2   151  ASP151      0.3671
    122  OD1       13.5160  -20.2540   25.7440 O.co2 151  ASP151     -0.2456
    123  OD2       13.4410  -19.4930   23.6240 O.co2 151  ASP151     -0.2456
@<TRIPOS>BOND
     1    56    55    2
     2    55    54    1
     3    53    54    1
     4    54    57    1
     5    57    58    1
     6    58    60    1
     7    58    59    1
     8    47    48    2
     9    47    46    1
    10    46    49    1
    11    46    45    1
    12    49    50    1
    13    52    50    1
    14    93    92    2
    15   101    98    1
    16   101   102    1
    17    99    98    1
    18    99   100    2
    19    98    97    1
    20   105   106    1
    21    50    51    1
    22    40    39    2
    23    45    39   am
    24   123   121   ar
    25    92    97   am
    26    92    91    1
    27   104   102   ar
    28   102   103   ar
    29    39    38    1
    30    43    41    1
    31   106   107    1
    32    95    94    1
    33    17    16   ar
    34    17    15   ar
    35    94    91    1
    36    94    96    1
    37   121   120    1
    38   121   122   ar
    39    91    90    1
    40    16    14   ar
    41    41    38    1
    42    41    42    1
    43    38    37    1
    44    32    33    1
    45    32    31    1
    46   120   117    1
    47   107   108    2
    48   107   109   am
    49    15    13   ar
    50    30    31    1
    51    30    27    1
    52    33    34    2
    53    37    28   am
    54    29    28    2
    55    14    12   ar
    56   109   110    1
    57    28    27    1
    58    42    44    1
    59    34    35    1
    60    34    36    1
    61    13    12   ar
    62   116   117    1
    63   116   111   am
    64   117   118    1
    65    27    26    1
    66    12    11    1
    67   119   118    2
    68     1     2    1
    69   110   111    1
    70   110   113    1
    71     5     2    1
    72     5     6    1
    73   111   112    2
    74     2     3    1
    75    26    20   am
    76    83    82    2
    77    82    81    1
    78    11     8    1
    79   115   113    1
    80   113   114    1
    81    61    62    1
    82    20    21    2
    83    20    19    1
    84    86    88   ar
    85    86    85   ar
    86     3     4    2
    87    81    84    1
    88    81    80    1
    89     8     9    1
    90     8     7    1
    91    65    62    1
    92    65    66    1
    93    18     9   am
    94    18    19    1
    95    62    63    1
    96    88    89   ar
    97     9    10    2
    98    84    85    1
    99    85    87   ar
   100    19    22    1
   101    66    68   am
   102    66    67    2
   103    89    87   ar
   104    63    64    2
   105    22    23    1
   106    23    24    1
   107    24    25    1
   108    79    77    1
   109    70    69    1
   110    70    71    1
   111    71    72    2
   112    71    73   am
   113    77    78    1
   114    77    74    1
   115    73    74    1
   116    74    75    1
   117    75    76    2
