@<TRIPOS>MOLECULE
tmp/3dcmA00.pdb
 173 171 0 0 0
SMALL
GASTEIGER

@<TRIPOS>ATOM
      1  N         17.3720   27.2170    7.1220 N.3   111  THR111     -0.1203
      2  CA        16.8950   27.0680    8.4970 C.3   111  THR111      0.1994
      3  C         15.6700   27.9390    8.7240 C.2   111  THR111      0.2619
      4  O         15.5740   29.0360    8.1760 O.2   111  THR111     -0.2717
      5  CB        17.9780   27.3970    9.5560 C.3   111  THR111      0.1784
      6  OG1       18.3050   28.7940    9.5120 O.3   111  THR111     -0.2211
      7  CG2       19.2360   26.5460    9.3390 C.3   111  THR111      0.0376
      8  N         14.7420   27.4370    9.5320 N.am  112  SER112     -0.1937
      9  CA        13.4870   28.1300    9.8200 C.3   112  SER112      0.2055
     10  C         12.7870   27.5030   11.0150 C.2   112  SER112      0.2642
     11  O         12.7680   26.2770   11.1490 O.2   112  SER112     -0.2714
     12  CB        12.5530   28.0750    8.6060 C.3   112  SER112      0.2130
     13  OG        11.3360   28.7560    8.8610 O.3   112  SER112     -0.2179
     14  N         12.2080   28.3500   11.8700 N.am  113  ALA113     -0.1977
     15  CA        11.3170   27.9000   12.9390 C.3   113  ALA113      0.1597
     16  C         10.0340   27.2870   12.3910 C.2   113  ALA113      0.2287
     17  O          9.3820   26.4960   13.0750 O.2   113  ALA113     -0.2864
     18  CB        10.9810   29.0520   13.8850 C.3   113  ALA113      0.0319
     19  N         18.1300   16.8580   12.0830 N.3   122  PHE122     -0.1241
     20  CA        19.5110   17.1990   12.4090 C.3   122  PHE122      0.1605
     21  C         20.4450   15.9850   12.3580 C.2   122  PHE122      0.2264
     22  O         21.6190   16.1260   12.0250 O.2   122  PHE122     -0.2867
     23  CB        19.5740   17.9230   13.7510 C.3   122  PHE122      0.0534
     24  CG        19.1040   19.3450   13.6750 C.ar  122  PHE122     -0.0203
     25  CD1       20.0000   20.3700   13.3870 C.ar  122  PHE122     -0.0042
     26  CD2       17.7630   19.6620   13.8630 C.ar  122  PHE122     -0.0042
     27  CE1       19.5690   21.6880   13.3060 C.ar  122  PHE122     -0.0003
     28  CE2       17.3210   20.9840   13.7790 C.ar  122  PHE122     -0.0003
     29  CZ        18.2290   21.9970   13.4990 C.ar  122  PHE122     -0.0000
     30  N         21.1620   31.4680    7.7200 N.3   140  LEU140     -0.1231
     31  CA        20.3890   32.0080    8.8370 C.3   140  LEU140      0.1693
     32  C         19.7240   33.3080    8.4310 C.2   140  LEU140      0.2593
     33  O         20.3420   34.1600    7.7750 O.2   140  LEU140     -0.2718
     34  CB        21.3060   32.2780   10.0370 C.3   140  LEU140      0.0284
     35  CG        22.2340   31.1550   10.5020 C.3   140  LEU140      0.0019
     36  CD1       23.4020   31.7350   11.2580 C.3   140  LEU140      0.0001
     37  CD2       21.4570   30.1710   11.3730 C.3   140  LEU140      0.0001
     38  N         18.4730   33.4730    8.8420 N.am  141  GLY141     -0.1942
     39  CA        17.7190   34.6640    8.4900 C.3   141  GLY141      0.2014
     40  C         17.7130   35.7520    9.5460 C.2   141  GLY141      0.2640
     41  O         18.1880   35.5590   10.6670 O.2   141  GLY141     -0.2714
     42  N         17.1840   36.9070    9.1490 N.am  142  THR142     -0.1936
     43  CA        16.8950   38.0280   10.0370 C.3   142  THR142      0.2028
     44  C         15.4630   38.4590    9.7120 C.2   142  THR142      0.2643
     45  O         14.7620   37.7530    8.9770 O.2   142  THR142     -0.2714
     46  CB        17.9100   39.1960    9.8540 C.3   142  THR142      0.1808
     47  OG1       17.9070   39.6490    8.4940 O.3   142  THR142     -0.2208
     48  CG2       19.3270   38.7370   10.2070 C.3   142  THR142      0.0379
     49  N         15.0190   39.5850   10.2690 N.am  143  GLY143     -0.1939
     50  CA        13.6700   40.0930   10.0140 C.3   143  GLY143      0.2014
     51  C         12.6290   39.0460   10.3510 C.2   143  GLY143      0.2639
     52  O         12.6070   38.5340   11.4700 O.2   143  GLY143     -0.2714
     53  N         11.7830   38.7170    9.3780 N.am  144  TRP144     -0.1959
     54  CA        10.7470   37.7000    9.5550 C.3   144  TRP144      0.1771
     55  C         11.0710   36.3830    8.8440 C.2   144  TRP144      0.2620
     56  O         10.1880   35.5740    8.5670 O.2   144  TRP144     -0.2715
     57  CB         9.3660   38.2600    9.1730 C.3   144  TRP144      0.0590
     58  CG         8.9060   39.2520   10.2000 C.ar  144  TRP144      0.0006
     59  CD1        8.0470   39.0170   11.2390 C.ar  144  TRP144      0.0946
     60  CD2        9.3360   40.6120   10.3340 C.ar  144  TRP144      0.0152
     61  NE1        7.8970   40.1540   11.9940 N.ar  144  TRP144     -0.2442
     62  CE2        8.6750   41.1490   11.4620 C.ar  144  TRP144      0.0810
     63  CE3       10.2010   41.4370    9.5990 C.ar  144  TRP144      0.0012
     64  CZ2        8.8520   42.4760   11.8750 C.ar  144  TRP144      0.0191
     65  CZ3       10.3840   42.7600   10.0140 C.ar  144  TRP144      0.0001
     66  CH2        9.7080   43.2630   11.1410 C.ar  144  TRP144      0.0015
     67  N         12.3550   36.1640    8.5760 N.am  145  GLY145     -0.1940
     68  CA        12.8230   34.8580    8.1280 C.3   145  GLY145      0.2014
     69  C         13.3360   34.8650    6.7050 C.2   145  GLY145      0.2638
     70  O         13.1810   35.8530    5.9910 O.2   145  GLY145     -0.2714
     71  N         13.9450   33.7510    6.3000 N.am  146  LEU146     -0.1977
     72  CA        14.4640   33.5880    4.9420 C.3   146  LEU146      0.1596
     73  C         13.3150   33.4560    3.9380 C.2   146  LEU146      0.2287
     74  O         12.3530   32.7250    4.1910 O.2   146  LEU146     -0.2864
     75  CB        15.3810   32.3580    4.8650 C.3   146  LEU146      0.0297
     76  CG        16.7100   32.3970    5.6310 C.3   146  LEU146      0.0022
     77  CD1       17.3110   30.9960    5.7410 C.3   146  LEU146      0.0001
     78  CD2       17.6790   33.3540    4.9660 C.3   146  LEU146      0.0001
     79  N         16.7430   22.1270    6.9860 N.3   158  LEU158     -0.1231
     80  CA        16.7890   21.5050    8.2960 C.3   158  LEU158      0.1693
     81  C         15.4600   21.7250    8.9710 C.2   158  LEU158      0.2592
     82  O         14.8970   22.8170    8.8810 O.2   158  LEU158     -0.2718
     83  CB        17.8930   22.1420    9.1480 C.3   158  LEU158      0.0284
     84  CG        19.3300   21.7760    8.7960 C.3   158  LEU158      0.0019
     85  CD1       20.3060   22.6920    9.5350 C.3   158  LEU158      0.0001
     86  CD2       19.5870   20.3080    9.1360 C.3   158  LEU158      0.0001
     87  N         14.9590   20.6910    9.6460 N.am  159  GLU159     -0.1966
     88  CA        13.7340   20.7950   10.4210 C.3   159  GLU159      0.1718
     89  C         13.8730   21.9250   11.4510 C.2   159  GLU159      0.2458
     90  O         14.9900   22.2920   11.8350 O.2   159  GLU159     -0.2730
     91  CB        13.3990   19.4620   11.1160 C.3   159  GLU159      0.0428
     92  CG        14.4380   19.0250   12.1300 C.3   159  GLU159      0.1163
     93  CD        14.1090   17.7120   12.8240 C.2   159  GLU159      0.3649
     94  OE1       13.1200   17.0490   12.4580 O.co2 159  GLU159     -0.2457
     95  OE2       14.8710   17.3420   13.7330 O.co2 159  GLU159     -0.2457
     96  N         12.7420   22.4930   11.8860 N.am  160  PRO160     -0.2716
     97  CA        12.8310   23.5090   12.9270 C.3   160  PRO160      0.1536
     98  C         13.3660   22.9210   14.2260 C.2   160  PRO160      0.2598
     99  O         13.0990   21.7550   14.5370 O.2   160  PRO160     -0.2715
    100  CB        11.3740   23.9350   13.1440 C.3   160  PRO160      0.0310
    101  CG        10.6230   23.4340   11.9530 C.3   160  PRO160      0.0237
    102  CD        11.3530   22.2320   11.4710 C.3   160  PRO160      0.0939
    103  N         14.1130   23.7320   14.9680 N.am  161  ILE161     -0.1978
    104  CA        14.4340   23.4270   16.3520 C.3   161  ILE161      0.1596
    105  C         13.1310   23.4860   17.1270 C.2   161  ILE161      0.2287
    106  O         12.3540   24.4250   16.9520 O.2   161  ILE161     -0.2864
    107  CB        15.4080   24.4590   16.9530 C.3   161  ILE161      0.0276
    108  CG1       16.7720   24.3870   16.2580 C.3   161  ILE161      0.0022
    109  CG2       15.5400   24.2680   18.4880 C.3   161  ILE161      0.0022
    110  CD1       17.6200   25.6670   16.4090 C.3   161  ILE161      0.0001
    111  N          8.6640   28.2740   19.4620 N.3   168  ASN168     -0.1225
    112  CA        10.0240   27.9890   18.9980 C.3   168  ASN168      0.1785
    113  C         10.6700   29.1550   18.2270 C.2   168  ASN168      0.2597
    114  O         11.5590   28.9450   17.3910 O.2   168  ASN168     -0.2718
    115  CB        10.0700   26.6760   18.1950 C.3   168  ASN168      0.1169
    116  CG         9.5060   26.8190   16.7870 C.2   168  ASN168      0.2627
    117  OD1        8.7610   27.7560   16.4960 O.2   168  ASN168     -0.2716
    118  ND2        9.8650   25.8820   15.9040 N.am  168  ASN168     -0.0877
    119  N         10.2230   30.3780   18.5200 N.am  169  HIS169     -0.1961
    120  CA        10.7700   31.5670   17.8700 C.3   169  HIS169      0.1787
    121  C         12.0280   32.0630   18.5700 C.2   169  HIS169      0.2620
    122  O         11.9920   32.9870   19.3850 O.2   169  HIS169     -0.2715
    123  CB         9.7060   32.6600   17.7560 C.3   169  HIS169      0.0785
    124  CG         8.5570   32.2680   16.8830 C.ar  169  HIS169      0.0821
    125  ND1        8.7070   31.9910   15.5390 N.ar  169  HIS169     -0.2267
    126  CD2        7.2490   32.0670   17.1660 C.ar  169  HIS169      0.1154
    127  CE1        7.5350   31.6580   15.0290 C.ar  169  HIS169      0.1986
    128  NE2        6.6350   31.6950   15.9950 N.ar  169  HIS169     -0.2212
    129  N         13.1410   31.4250   18.2350 N.am  170  LEU170     -0.1963
    130  CA        14.4400   31.7460   18.8210 C.3   170  LEU170      0.1728
    131  C         15.0780   32.9400   18.1230 C.2   170  LEU170      0.2617
    132  O         14.7840   33.2160   16.9540 O.2   170  LEU170     -0.2715
    133  CB        15.3700   30.5320   18.6970 C.3   170  LEU170      0.0311
    134  CG        14.9840   29.2400   19.4300 C.3   170  LEU170      0.0022
    135  CD1       15.7660   28.0420   18.9140 C.3   170  LEU170      0.0001
    136  CD2       15.2200   29.4120   20.9220 C.3   170  LEU170      0.0001
    137  N         15.9760   33.6310   18.8280 N.am  171  SER171     -0.1936
    138  CA        16.8540   34.5890   18.1720 C.3   171  SER171      0.2055
    139  C         17.7380   33.8170   17.2030 C.2   171  SER171      0.2643
    140  O         17.9110   32.6020   17.3380 O.2   171  SER171     -0.2714
    141  CB        17.7400   35.3160   19.1780 C.3   171  SER171      0.2130
    142  OG        18.8830   34.5400   19.5060 O.3   171  SER171     -0.2179
    143  N         18.3120   34.5350   16.2480 N.am  172  VAL172     -0.1963
    144  CA        19.2050   33.9370   15.2700 C.3   172  VAL172      0.1727
    145  C         20.5230   33.4870   15.9170 C.2   172  VAL172      0.2616
    146  O         21.1370   32.5170   15.4760 O.2   172  VAL172     -0.2715
    147  CB        19.4350   34.8780   14.0550 C.3   172  VAL172      0.0290
    148  CG1       20.2690   36.1200   14.4310 C.3   172  VAL172      0.0023
    149  CG2       20.0750   34.1020   12.9060 C.3   172  VAL172      0.0023
    150  N         20.9340   34.1860   16.9740 N.am  173  ARG173     -0.1977
    151  CA        22.1430   33.8450   17.7340 C.3   173  ARG173      0.1597
    152  C         21.9790   32.5280   18.5000 C.2   173  ARG173      0.2287
    153  O         22.8780   31.6850   18.4990 O.2   173  ARG173     -0.2864
    154  CB        22.4940   34.9810   18.7030 C.3   173  ARG173      0.0334
    155  CG        22.7090   36.3320   18.0120 C.3   173  ARG173      0.0492
    156  CD        22.6000   37.4980   18.9940 C.3   173  ARG173      0.2205
    157  NE        21.2680   37.6290   19.5800 N.pl3 173  ARG173     -0.0865
    158  CZ        20.2840   38.3690   19.0760 C.cat 173  ARG173      0.5346
    159  NH1       20.4580   39.0560   17.9520 N.pl3 173  ARG173      0.1354
    160  NH2       19.1130   38.4190   19.6960 N.pl3 173  ARG173      0.1354
    161  N         19.5180   30.2390   17.7950 N.3   175  ALA175     -0.1245
    162  CA        19.3130   29.2490   16.7340 C.3   175  ALA175      0.1562
    163  C         20.6390   28.7800   16.1330 C.2   175  ALA175      0.2260
    164  O         20.8830   27.5770   16.0490 O.2   175  ALA175     -0.2867
    165  CB        18.3960   29.7990   15.6510 C.3   175  ALA175      0.0290
    166  N         21.8540   24.9470   16.1750 N.3   179  ILE179     -0.1245
    167  CA        22.0710   24.3110   14.8650 C.3   179  ILE179      0.1561
    168  C         23.4980   23.7750   14.7510 C.2   179  ILE179      0.2260
    169  O         23.7050   22.6140   14.4050 O.2   179  ILE179     -0.2867
    170  CB        21.7540   25.2760   13.7010 C.3   179  ILE179      0.0252
    171  CG1       20.2340   25.4910   13.6020 C.3   179  ILE179      0.0019
    172  CG2       22.3310   24.7510   12.3580 C.3   179  ILE179      0.0019
    173  CD1       19.8380   26.8160   12.9880 C.3   179  ILE179      0.0001
@<TRIPOS>BOND
     1    73    74    2
     2    73    72    1
     3    75    72    1
     4    75    76    1
     5    72    71    1
     6    78    76    1
     7    76    77    1
     8    70    69    2
     9    71    69   am
    10    69    68    1
    11    79    80    1
    12     1     2    1
    13    30    31    1
    14    33    32    2
    15    68    67    1
    16     4     3    2
    17    80    81    1
    18    80    83    1
    19    32    31    1
    20    32    38   am
    21    39    38    1
    22    39    40    1
    23    47    46    1
    24     2     3    1
    25     2     5    1
    26    56    55    2
    27    67    55   am
    28    12    13    1
    29    12     9    1
    30     3     8   am
    31    84    86    1
    32    84    83    1
    33    84    85    1
    34    31    34    1
    35    55    54    1
    36    82    81    2
    37    81    87   am
    38    45    44    2
    39    42    40   am
    40    42    43    1
    41    57    54    1
    42    57    58    1
    43     7     5    1
    44    53    54    1
    45    53    51   am
    46     6     5    1
    47     8     9    1
    48    40    41    2
    49    63    65   ar
    50    63    60   ar
    51    87    88    1
    52    44    43    1
    53    44    49   am
    54     9    10    1
    55    46    43    1
    56    46    48    1
    57    50    49    1
    58    50    51    1
    59    65    66   ar
    60    34    35    1
    61    58    60   ar
    62    58    59   ar
    63    60    62   ar
    64    51    52    2
    65    88    91    1
    66    88    89    1
    67    35    36    1
    68    35    37    1
    69    10    11    2
    70    10    14   am
    71    91    92    1
    72    66    64   ar
    73    59    61   ar
    74    89    90    2
    75    89    96   am
    76    62    64   ar
    77    62    61   ar
    78   102    96    1
    79   102   101    1
    80    14    15    1
    81    96    97    1
    82   101   100    1
    83    22    21    2
    84    19    20    1
    85    92    93    1
    86    21    20    1
    87   172   170    1
    88    16    15    1
    89    16    17    2
    90    20    23    1
    91    94    93   ar
    92    93    95   ar
    93   149   147    1
    94    97   100    1
    95    97    98    1
    96    15    18    1
    97   173   171    1
    98    27    25   ar
    99    27    29   ar
   100    25    24   ar
   101    29    28   ar
   102   171   170    1
   103    24    23    1
   104    24    26   ar
   105   170   167    1
   106    28    26   ar
   107   147   148    1
   108   147   144    1
   109    98    99    2
   110    98   103   am
   111   169   168    2
   112   168   167    1
   113   167   166    1
   114   103   104    1
   115   127   125   ar
   116   127   128   ar
   117   144   145    1
   118   144   143    1
   119   146   145    2
   120   125   124   ar
   121   165   162    1
   122   118   116   am
   123   145   150   am
   124   128   126   ar
   125   164   163    2
   126   163   162    1
   127   143   139   am
   128   108   110    1
   129   108   107    1
   130   104   107    1
   131   104   105    1
   132   117   116    2
   133   162   161    1
   134   116   115    1
   135   124   126   ar
   136   124   123    1
   137   106   105    2
   138   107   109    1
   139   132   131    2
   140   150   151    1
   141   139   140    2
   142   139   138    1
   143   114   113    2
   144   151   152    1
   145   151   154    1
   146   123   120    1
   147   120   119    1
   148   120   121    1
   149   159   158    1
   150   155   154    1
   151   155   156    1
   152   131   130    1
   153   131   137   am
   154   138   137    1
   155   138   141    1
   156   115   112    1
   157   113   119   am
   158   113   112    1
   159   129   121   am
   160   129   130    1
   161   153   152    2
   162   121   122    2
   163   133   130    1
   164   133   134    1
   165   135   134    1
   166   156   157    1
   167   112   111    1
   168   158   157    2
   169   158   160    1
   170   141   142    1
   171   134   136    1
