@<TRIPOS>MOLECULE
tmp/3dcqD00.pdb
 83 78 0 0 0
SMALL
GASTEIGER

@<TRIPOS>ATOM
      1  N         38.6230   48.1800  -25.3000 N.3    21  ASN21      -0.1225
      2  CA        38.2930   49.5360  -24.9080 C.3    21  ASN21       0.1785
      3  C         39.6190   50.1880  -24.6420 C.2    21  ASN21       0.2598
      4  O         39.9720   50.4350  -23.5010 O.2    21  ASN21      -0.2718
      5  CB        37.4560   49.5250  -23.6230 C.3    21  ASN21       0.1169
      6  CG        36.0330   49.0400  -23.8700 C.2    21  ASN21       0.2627
      7  OD1       35.2310   49.7530  -24.4620 O.2    21  ASN21      -0.2716
      8  ND2       35.7300   47.8170  -23.4380 N.am   21  ASN21      -0.0877
      9  N         40.3630   50.4490  -25.7000 N.am   22  SER22      -0.1938
     10  CA        41.6690   51.0460  -25.5320 C.3    22  SER22       0.2055
     11  C         42.1860   51.5500  -26.8660 C.2    22  SER22       0.2644
     12  O         41.8010   51.0460  -27.9140 O.2    22  SER22      -0.2714
     13  CB        42.6260   49.9890  -24.9990 C.3    22  SER22       0.2130
     14  OG        43.9660   50.4390  -25.0190 O.3    22  SER22      -0.2179
     15  N         43.0430   52.5610  -26.8120 N.am   23  SER23      -0.1935
     16  CA        43.6450   53.1190  -28.0110 C.3    23  SER23       0.2055
     17  C         44.6310   52.0600  -28.5270 C.2    23  SER23       0.2643
     18  O         44.9740   52.0250  -29.7040 O.2    23  SER23      -0.2714
     19  CB        44.3960   54.4070  -27.6470 C.3    23  SER23       0.2130
     20  OG        44.8290   55.1080  -28.7940 O.3    23  SER23      -0.2179
     21  N         45.0950   51.2070  -27.6200 N.am   24  GLY24      -0.1954
     22  CA        46.0390   50.1750  -28.0060 C.3    24  GLY24       0.1869
     23  C         45.4040   48.8960  -28.5250 C.2    24  GLY24       0.2309
     24  O         44.3460   48.4770  -28.0400 O.2    24  GLY24      -0.2863
     25  N         37.6060   51.5330  -28.9970 N.3    45  THR45      -0.1218
     26  CA        37.4110   52.2440  -27.7520 C.3    45  THR45       0.1862
     27  C         35.8890   52.1940  -27.5610 C.2    45  THR45       0.2287
     28  O         35.3280   52.9140  -26.7360 O.2    45  THR45      -0.2866
     29  CB        37.9280   53.7070  -27.8260 C.3    45  THR45       0.1770
     30  OG1       37.5000   54.3000  -29.0560 O.3    45  THR45      -0.2211
     31  CG2       39.4450   53.7400  -27.7290 C.3    45  THR45       0.0375
     32  N         44.5540   46.0030  -17.7590 N.3    95  GLU95      -0.1231
     33  CA        45.0040   47.3720  -17.8620 C.3    95  GLU95       0.1699
     34  C         46.3080   47.3950  -18.6340 C.2    95  GLU95       0.2592
     35  O         47.2880   46.7230  -18.2740 O.2    95  GLU95      -0.2718
     36  CB        45.1810   47.9390  -16.4540 C.3    95  GLU95       0.0402
     37  CG        45.7390   49.3520  -16.4430 C.3    95  GLU95       0.1161
     38  CD        44.9150   50.2660  -17.2830 C.2    95  GLU95       0.3649
     39  OE1       43.6760   50.2370  -17.0920 O.co2  95  GLU95      -0.2457
     40  OE2       45.4940   51.0160  -18.1240 O.co2  95  GLU95      -0.2457
     41  N         46.3110   48.1740  -19.7020 N.am   96  ASP96      -0.1960
     42  CA        47.4690   48.2780  -20.5650 C.3    96  ASP96       0.1840
     43  C         48.1650   49.6200  -20.3940 C.2    96  ASP96       0.2623
     44  O         49.1870   49.8800  -21.0420 O.2    96  ASP96      -0.2715
     45  CB        47.0450   48.1010  -22.0290 C.3    96  ASP96       0.1450
     46  CG        46.1830   49.2510  -22.5480 C.2    96  ASP96       0.3671
     47  OD1       46.1670   50.3470  -21.9290 O.co2  96  ASP96      -0.2456
     48  OD2       45.5280   49.0720  -23.5990 O.co2  96  ASP96      -0.2456
     49  N         47.6130   50.4570  -19.5170 N.am   97  GLY97      -0.1940
     50  CA        48.1830   51.7740  -19.3160 C.3    97  GLY97       0.2014
     51  C         48.2740   52.2840  -17.8930 C.2    97  GLY97       0.2640
     52  O         48.6540   51.5570  -16.9660 O.2    97  GLY97      -0.2714
     53  N         47.8900   53.5450  -17.7210 N.am   98  THR98      -0.1936
     54  CA        47.9800   54.2120  -16.4260 C.3    98  THR98       0.2028
     55  C         46.6610   54.6770  -15.8320 C.2    98  THR98       0.2642
     56  O         46.6010   54.9980  -14.6550 O.2    98  THR98      -0.2714
     57  CB        48.8900   55.4520  -16.5530 C.3    98  THR98       0.1808
     58  OG1       48.3170   56.3350  -17.5170 O.3    98  THR98      -0.2208
     59  CG2       50.2710   55.0590  -17.0340 C.3    98  THR98       0.0379
     60  N         45.5970   54.7150  -16.6210 N.am   99  ASP99      -0.1971
     61  CA        44.3440   55.2280  -16.0820 C.3    99  ASP99       0.1709
     62  C         43.5910   54.2560  -15.1900 C.2    99  ASP99       0.2293
     63  O         42.6540   54.6530  -14.4820 O.2    99  ASP99      -0.2864
     64  CB        43.4480   55.7230  -17.2160 C.3    99  ASP99       0.1436
     65  CG        42.8730   54.6030  -18.0450 C.2    99  ASP99       0.3671
     66  OD1       43.3370   53.4520  -17.9060 O.co2  99  ASP99      -0.2456
     67  OD2       41.9580   54.8770  -18.8410 O.co2  99  ASP99      -0.2456
     68  N         41.4100   51.7830  -15.8040 N.3   101  ASP101     -0.1239
     69  CA        39.9970   51.5040  -15.9530 C.3   101  ASP101      0.1674
     70  C         39.8260   49.9770  -16.1180 C.2   101  ASP101      0.2266
     71  O         38.7230   49.4460  -16.0060 O.2   101  ASP101     -0.2867
     72  CB        39.3770   52.3070  -17.1150 C.3   101  ASP101      0.1410
     73  CG        40.0850   52.1040  -18.4550 C.2   101  ASP101      0.3668
     74  OD1       39.6410   52.7520  -19.4240 O.co2 101  ASP101     -0.2456
     75  OD2       41.0410   51.3160  -18.5680 O.co2 101  ASP101     -0.2456
     76  N         40.6080   47.6290  -20.8760 N.3   104  ASP104     -0.1239
     77  CA        41.3140   47.6760  -22.1550 C.3   104  ASP104      0.1674
     78  C         41.0140   46.4520  -22.9870 C.2   104  ASP104      0.2266
     79  O         40.7940   46.5460  -24.1940 O.2   104  ASP104     -0.2867
     80  CB        42.7860   47.9020  -21.9070 C.3   104  ASP104      0.1410
     81  CG        43.0160   49.1800  -21.1540 C.2   104  ASP104      0.3668
     82  OD1       42.2130   50.1060  -21.3660 O.co2 104  ASP104     -0.2456
     83  OD2       43.9590   49.2660  -20.3670 O.co2 104  ASP104     -0.2456
@<TRIPOS>BOND
     1    18    17    2
     2    30    29    1
     3    25    26    1
     4    20    19    1
     5    17    16    1
     6    17    21   am
     7    23    24    2
     8    23    22    1
     9    16    19    1
    10    16    15    1
    11    22    21    1
    12    12    11    2
    13    29    26    1
    14    29    31    1
    15    26    27    1
    16    27    28    2
    17    11    15   am
    18    11    10    1
    19     9    10    1
    20     9     3   am
    21    10    13    1
    22     1     2    1
    23    14    13    1
    24     2     3    1
    25     2     5    1
    26     3     4    2
    27     7     6    2
    28    79    78    2
    29     6     5    1
    30     6     8   am
    31    48    46   ar
    32    78    77    1
    33    46    45    1
    34    46    47   ar
    35    77    80    1
    36    77    76    1
    37    45    42    1
    38    80    81    1
    39    82    81   ar
    40    81    83   ar
    41    44    43    2
    42    42    43    1
    43    42    41    1
    44    43    49   am
    45    41    34   am
    46    49    50    1
    47    74    73   ar
    48    50    51    1
    49    67    65   ar
    50    34    35    2
    51    34    33    1
    52    75    73   ar
    53    73    72    1
    54    40    38   ar
    55    65    66   ar
    56    65    64    1
    57    51    53   am
    58    51    52    2
    59    33    32    1
    60    33    36    1
    61    53    54    1
    62    58    57    1
    63    38    39   ar
    64    38    37    1
    65    64    61    1
    66    72    69    1
    67    59    57    1
    68    60    61    1
    69    60    55   am
    70    57    54    1
    71    36    37    1
    72    54    55    1
    73    70    71    2
    74    70    69    1
    75    61    62    1
    76    69    68    1
    77    55    56    2
    78    62    63    2
