@<TRIPOS>MOLECULE
tmp/3dcqB00.pdb
 83 78 0 0 0
SMALL
GASTEIGER

@<TRIPOS>ATOM
      1  N         42.2810   32.1720    9.2650 N.3    21  ASN21      -0.1225
      2  CA        42.4750   30.7620    8.9450 C.3    21  ASN21       0.1785
      3  C         43.9390   30.6190    8.6570 C.2    21  ASN21       0.2598
      4  O         44.3210   30.4820    7.5120 O.2    21  ASN21      -0.2718
      5  CB        41.6950   30.3870    7.6850 C.3    21  ASN21       0.1169
      6  CG        40.2210   30.2600    7.9420 C.2    21  ASN21       0.2627
      7  OD1       39.7750   29.2830    8.5250 O.2    21  ASN21      -0.2716
      8  ND2       39.4510   31.2490    7.5080 N.am   21  ASN21      -0.0877
      9  N         44.7700   30.6660    9.6800 N.am   22  SER22      -0.1938
     10  CA        46.2010   30.5640    9.4510 C.3    22  SER22       0.2055
     11  C         46.8950   30.3680   10.7840 C.2    22  SER22       0.2644
     12  O         46.3520   30.7440   11.8270 O.2    22  SER22      -0.2714
     13  CB        46.7030   31.8740    8.8280 C.3    22  SER22       0.2130
     14  OG        48.1070   31.8910    8.7090 O.3    22  SER22      -0.2179
     15  N         48.0710   29.7510   10.7590 N.am   23  SER23      -0.1935
     16  CA        48.8270   29.5580   11.9860 C.3    23  SER23       0.2055
     17  C         49.4200   30.9260   12.3010 C.2    23  SER23       0.2643
     18  O         49.8130   31.2070   13.4290 O.2    23  SER23      -0.2714
     19  CB        49.9390   28.5190   11.7930 C.3    23  SER23       0.2130
     20  OG        50.8400   28.9130   10.7790 O.3    23  SER23      -0.2179
     21  N         49.4530   31.7900   11.2870 N.am   24  GLY24      -0.1954
     22  CA        49.9840   33.1270   11.4860 C.3    24  GLY24       0.1869
     23  C         48.9360   34.0740   12.0590 C.2    24  GLY24       0.2309
     24  O         47.7760   34.1110   11.6100 O.2    24  GLY24      -0.2863
     25  N         42.9030   28.5950   12.9780 N.3    45  THR45      -0.1218
     26  CA        42.9270   27.8700   11.7220 C.3    45  THR45       0.1862
     27  C         41.5260   27.3180   11.5670 C.2    45  THR45       0.2287
     28  O         41.2800   26.4000   10.7940 O.2    45  THR45      -0.2866
     29  CB        43.9820   26.7270   11.7220 C.3    45  THR45       0.1770
     30  OG1       43.8670   25.9580   12.9220 O.3    45  THR45      -0.2211
     31  CG2       45.3730   27.2990   11.6350 C.3    45  THR45       0.0375
     32  N         46.7780   36.2900    1.6090 N.3    95  GLU95      -0.1231
     33  CA        47.7180   35.1700    1.6950 C.3    95  GLU95       0.1699
     34  C         48.9490   35.6230    2.4490 C.2    95  GLU95       0.2592
     35  O         49.5770   36.6230    2.0930 O.2    95  GLU95      -0.2718
     36  CB        48.0990   34.7360    0.2820 C.3    95  GLU95       0.0402
     37  CG        49.1180   33.6170    0.2370 C.3    95  GLU95       0.1161
     38  CD        48.6790   32.4540    1.1050 C.2    95  GLU95       0.3649
     39  OE1       47.5130   32.0030    0.9570 O.co2  95  GLU95      -0.2457
     40  OE2       49.4960   32.0080    1.9330 O.co2  95  GLU95      -0.2457
     41  N         49.2850   34.8950    3.4980 N.am   96  ASP96      -0.1960
     42  CA        50.4530   35.2470    4.2960 C.3    96  ASP96       0.1840
     43  C         51.6110   34.2820    4.0770 C.2    96  ASP96       0.2623
     44  O         52.6940   34.4560    4.6490 O.2    96  ASP96      -0.2715
     45  CB        50.0980   35.2750    5.7850 C.3    96  ASP96       0.1450
     46  CG        49.6650   33.9140    6.3180 C.2    96  ASP96       0.3671
     47  OD1       50.1270   32.8600    5.8030 O.co2  96  ASP96      -0.2456
     48  OD2       48.8740   33.9030    7.2810 O.co2  96  ASP96      -0.2456
     49  N         51.3920   33.2700    3.2480 N.am   97  GLY97      -0.1940
     50  CA        52.4380   32.2890    3.0340 C.3    97  GLY97       0.2014
     51  C         52.6230   31.8880    1.5920 C.2    97  GLY97       0.2640
     52  O         52.6170   32.7260    0.6930 O.2    97  GLY97      -0.2714
     53  N         52.7480   30.5870    1.3790 N.am   98  THR98      -0.1936
     54  CA        52.9730   30.0630    0.0480 C.3    98  THR98       0.2028
     55  C         51.9120   29.0860   -0.4650 C.2    98  THR98       0.2642
     56  O         51.9300   28.7430   -1.6420 O.2    98  THR98      -0.2714
     57  CB        54.3130   29.3450    0.0170 C.3    98  THR98       0.1808
     58  OG1       54.3270   28.3790    1.0710 O.3    98  THR98      -0.2208
     59  CG2       55.4530   30.3260    0.2140 C.3    98  THR98       0.0379
     60  N         50.9890   28.6380    0.3790 N.am   99  ASP99      -0.1971
     61  CA        50.0040   27.6800   -0.1070 C.3    99  ASP99       0.1709
     62  C         48.9130   28.2840   -0.9600 C.2    99  ASP99       0.2293
     63  O         48.1440   27.5670   -1.5870 O.2    99  ASP99      -0.2864
     64  CB        49.3940   26.8910    1.0480 C.3    99  ASP99       0.1436
     65  CG        48.5270   27.7320    1.9240 C.2    99  ASP99       0.3671
     66  OD1       48.6410   28.9670    1.8440 O.co2  99  ASP99      -0.2456
     67  OD2       47.7570   27.1540    2.7070 O.co2  99  ASP99      -0.2456
     68  N         46.0120   29.6900   -0.3360 N.3   101  ASP101     -0.1239
     69  CA        44.6050   29.4050   -0.1580 C.3   101  ASP101      0.1674
     70  C         43.8740   30.7400    0.0120 C.2   101  ASP101      0.2266
     71  O         42.6440   30.8030   -0.0600 O.2   101  ASP101     -0.2867
     72  CB        44.3460   28.4420    0.9980 C.3   101  ASP101      0.1410
     73  CG        44.8950   28.9150    2.3270 C.2   101  ASP101      0.3668
     74  OD1       45.5540   29.9700    2.4150 O.co2 101  ASP101     -0.2456
     75  OD2       44.6350   28.1960    3.3130 O.co2 101  ASP101     -0.2456
     76  N         43.8060   33.3100    4.7530 N.3   104  ASP104     -0.1239
     77  CA        44.5040   33.5760    6.0180 C.3   104  ASP104      0.1674
     78  C         43.7950   34.6190    6.8510 C.2   104  ASP104      0.2266
     79  O         43.6860   34.4830    8.0620 O.2   104  ASP104     -0.2867
     80  CB        45.9560   33.9100    5.7300 C.3   104  ASP104      0.1410
     81  CG        46.6210   32.8030    4.9860 C.2   104  ASP104      0.3668
     82  OD1       46.2500   31.6330    5.2430 O.co2 104  ASP104     -0.2456
     83  OD2       47.4930   33.0630    4.1480 O.co2 104  ASP104     -0.2456
@<TRIPOS>BOND
     1    56    55    2
     2    63    62    2
     3    62    61    1
     4    55    54    1
     5    55    60   am
     6    68    69    1
     7    69    70    1
     8    69    72    1
     9    61    60    1
    10    61    64    1
    11    71    70    2
    12    57    54    1
    13    57    59    1
    14    57    58    1
    15    54    53    1
    16    37    36    1
    17    37    38    1
    18    36    33    1
    19    52    51    2
    20    39    38   ar
    21    72    73    1
    22    64    65    1
    23    38    40   ar
    24    53    51   am
    25    51    50    1
    26    32    33    1
    27    33    34    1
    28    66    65   ar
    29    65    67   ar
    30    35    34    2
    31    73    74   ar
    32    73    75   ar
    33    34    41   am
    34    50    49    1
    35    49    43   am
    36    41    42    1
    37    43    42    1
    38    43    44    2
    39    83    81   ar
    40    42    45    1
    41    76    77    1
    42    81    82   ar
    43    81    80    1
    44    80    77    1
    45    45    46    1
    46    47    46   ar
    47    77    78    1
    48    46    48   ar
    49    78    79    2
    50     8     6   am
    51     4     3    2
    52     5     6    1
    53     5     2    1
    54     6     7    2
    55     3     2    1
    56     3     9   am
    57    14    13    1
    58    13    10    1
    59     2     1    1
    60    10     9    1
    61    10    11    1
    62    15    11   am
    63    15    16    1
    64    20    19    1
    65    11    12    2
    66    28    27    2
    67    21    22    1
    68    21    17   am
    69    22    23    1
    70    27    26    1
    71    24    23    2
    72    31    29    1
    73    26    29    1
    74    26    25    1
    75    29    30    1
    76    19    16    1
    77    16    17    1
    78    17    18    2
