@<TRIPOS>MOLECULE
tmp/3dcqA00.pdb
 105 99 0 0 0
SMALL
GASTEIGER

@<TRIPOS>ATOM
      1  N         19.7930   42.4980   10.1120 N.3    21  ASN21      -0.1225
      2  CA        19.5200   43.9040    9.8500 C.3    21  ASN21       0.1785
      3  C         18.0190   44.0190    9.6740 C.2    21  ASN21       0.2598
      4  O         17.5410   44.1940    8.5710 O.2    21  ASN21      -0.2718
      5  CB        20.2550   44.3190    8.5740 C.3    21  ASN21       0.1169
      6  CG        21.7490   44.4090    8.7980 C.2    21  ASN21       0.2627
      7  OD1       22.2350   45.3740    9.3980 O.2    21  ASN21      -0.2716
      8  ND2       22.4780   43.3940    8.3560 N.am   21  ASN21      -0.0877
      9  N         17.2760   43.9150   10.7700 N.am   22  SER22      -0.1938
     10  CA        15.8230   43.9610   10.6800 C.3    22  SER22       0.2055
     11  C         15.2170   44.0310   12.0590 C.2    22  SER22       0.2644
     12  O         15.8080   43.5590   13.0360 O.2    22  SER22      -0.2714
     13  CB        15.3040   42.6800    9.9980 C.3    22  SER22       0.2130
     14  OG        13.8860   42.6400    9.9600 O.3    22  SER22      -0.2179
     15  N         14.0380   44.6330   12.1340 N.am   23  SER23      -0.1935
     16  CA        13.3180   44.7140   13.3940 C.3    23  SER23       0.2055
     17  C         12.8400   43.2980   13.6800 C.2    23  SER23       0.2644
     18  O         12.5110   42.9600   14.8160 O.2    23  SER23      -0.2714
     19  CB        12.0950   45.6250   13.2610 C.3    23  SER23       0.2130
     20  OG        12.5000   46.9470   12.9980 O.3    23  SER23      -0.2179
     21  N         12.7860   42.4780   12.6350 N.am   24  GLY24      -0.1939
     22  CA        12.3030   41.1180   12.7960 C.3    24  GLY24       0.2014
     23  C         13.3560   40.1350   13.2580 C.2    24  GLY24       0.2639
     24  O         14.5240   40.2260   12.8620 O.2    24  GLY24      -0.2714
     25  N         12.9550   39.2090   14.1230 N.am   25  THR25      -0.1950
     26  CA        13.8710   38.1930   14.5920 C.3    25  THR25       0.1897
     27  C         14.1450   37.2610   13.4310 C.2    25  THR25       0.2313
     28  O         13.2320   36.7310   12.8030 O.2    25  THR25      -0.2863
     29  CB        13.2800   37.3820   15.7620 C.3    25  THR25       0.1794
     30  OG1       13.2750   38.1950   16.9390 O.3    25  THR25      -0.2208
     31  CG2       14.1060   36.1300   16.0080 C.3    25  THR25       0.0378
     32  N         19.2530   45.4690   14.1060 N.3    45  THR45      -0.1218
     33  CA        19.1380   46.3700   12.9620 C.3    45  THR45       0.1862
     34  C         20.5370   46.9710   12.8190 C.2    45  THR45       0.2287
     35  O         20.7130   47.9890   12.1720 O.2    45  THR45      -0.2866
     36  CB        18.1330   47.4990   13.2260 C.3    45  THR45       0.1770
     37  OG1       18.3470   48.0280   14.5420 O.3    45  THR45      -0.2211
     38  CG2       16.7110   46.9740   13.0980 C.3    45  THR45       0.0375
     39  N         11.3620   34.3930    9.2750 N.3    69  VAL69      -0.1231
     40  CA        11.1030   35.5620   10.1170 C.3    69  VAL69       0.1692
     41  C          9.5940   35.6330   10.3440 C.2    69  VAL69       0.2592
     42  O          8.8060   35.5470    9.3910 O.2    69  VAL69      -0.2718
     43  CB        11.5310   36.8540    9.4200 C.3    69  VAL69       0.0266
     44  CG1       11.2960   38.0590   10.3520 C.3    69  VAL69       0.0020
     45  CG2       12.9950   36.7530    8.9920 C.3    69  VAL69       0.0020
     46  N          9.2030   35.8050   11.5960 N.am   70  ASN70      -0.1974
     47  CA         7.7990   35.8650   11.9330 C.3    70  ASN70       0.1688
     48  C          6.9990   34.8020   11.1880 C.2    70  ASN70       0.2292
     49  O          5.9930   35.1030   10.5300 O.2    70  ASN70      -0.2864
     50  CB         7.2350   37.2720   11.6650 C.3    70  ASN70       0.1181
     51  CG         7.6800   38.2780   12.7220 C.2    70  ASN70       0.2629
     52  OD1        7.1410   39.3870   12.8300 O.2    70  ASN70      -0.2716
     53  ND2        8.6620   37.8860   13.5140 N.am   70  ASN70      -0.0877
     54  N         15.0800   38.8680    2.3080 N.3    95  GLU95      -0.1231
     55  CA        14.1310   39.9400    2.5350 C.3    95  GLU95       0.1699
     56  C         12.9240   39.3780    3.2900 C.2    95  GLU95       0.2592
     57  O         12.2240   38.4670    2.8060 O.2    95  GLU95      -0.2718
     58  CB        13.6960   40.5340    1.2100 C.3    95  GLU95       0.0402
     59  CG        12.6260   41.5490    1.3790 C.3    95  GLU95       0.1161
     60  CD        13.0350   42.6370    2.3150 C.2    95  GLU95       0.3649
     61  OE1       14.1130   43.2410    2.1150 O.co2  95  GLU95      -0.2457
     62  OE2       12.2730   42.9100    3.2670 O.co2  95  GLU95      -0.2457
     63  N         12.6910   39.9370    4.4660 N.am   96  ASP96      -0.1960
     64  CA        11.6020   39.4550    5.3090 C.3    96  ASP96       0.1840
     65  C         10.3390   40.2660    5.2020 C.2    96  ASP96       0.2623
     66  O          9.3150   39.8900    5.7660 O.2    96  ASP96      -0.2715
     67  CB        12.0270   39.3990    6.7840 C.3    96  ASP96       0.1450
     68  CG        12.3950   40.7820    7.3770 C.2    96  ASP96       0.3671
     69  OD1       11.9860   41.8330    6.8410 O.co2  96  ASP96      -0.2456
     70  OD2       13.0900   40.8010    8.4130 O.co2  96  ASP96      -0.2456
     71  N         10.4120   41.3770    4.4820 N.am   97  GLY97      -0.1940
     72  CA         9.2460   42.2190    4.3910 C.3    97  GLY97       0.2014
     73  C          9.0330   42.7530    3.0110 C.2    97  GLY97       0.2640
     74  O          9.0220   41.9960    2.0520 O.2    97  GLY97      -0.2714
     75  N          8.9360   44.0760    2.9240 N.am   98  THR98      -0.1936
     76  CA         8.6550   44.7420    1.6670 C.3    98  THR98       0.2028
     77  C          9.6400   45.8260    1.2030 C.2    98  THR98       0.2642
     78  O          9.5090   46.3090    0.0800 O.2    98  THR98      -0.2714
     79  CB         7.2720   45.4100    1.7570 C.3    98  THR98       0.1808
     80  OG1        7.3060   46.3680    2.8110 O.3    98  THR98      -0.2208
     81  CG2        6.1840   44.3840    2.0910 C.3    98  THR98       0.0379
     82  N         10.6060   46.2360    2.0210 N.am   99  ASP99      -0.1971
     83  CA        11.4910   47.3120    1.5440 C.3    99  ASP99       0.1709
     84  C         12.5670   46.8200    0.5950 C.2    99  ASP99       0.2293
     85  O         13.2610   47.5980   -0.0450 O.2    99  ASP99      -0.2864
     86  CB        12.0820   48.1110    2.7260 C.3    99  ASP99       0.1436
     87  CG        13.0570   47.3170    3.5550 C.2    99  ASP99       0.3671
     88  OD1       13.0430   46.0860    3.4310 O.co2  99  ASP99      -0.2456
     89  OD2       13.8240   47.9220    4.3470 O.co2  99  ASP99      -0.2456
     90  N         15.5550   45.5310    0.9510 N.3   101  ASP101     -0.1239
     91  CA        16.9580   45.8850    1.1020 C.3   101  ASP101      0.1674
     92  C         17.7660   44.5590    1.1420 C.2   101  ASP101      0.2266
     93  O         19.0000   44.5350    1.0250 O.2   101  ASP101     -0.2867
     94  CB        17.1990   46.7930    2.3270 C.3   101  ASP101      0.1410
     95  CG        16.7650   46.1780    3.6540 C.2   101  ASP101      0.3668
     96  OD1       16.1660   45.0810    3.6960 O.co2 101  ASP101     -0.2456
     97  OD2       17.0470   46.8210    4.6710 O.co2 101  ASP101     -0.2456
     98  N         18.1230   41.6050    5.6070 N.3   104  ASP104     -0.1239
     99  CA        17.4830   41.2390    6.8720 C.3   104  ASP104      0.1674
    100  C         18.2510   40.1660    7.6210 C.2   104  ASP104      0.2266
    101  O         18.4160   40.2380    8.8440 O.2   104  ASP104     -0.2867
    102  CB        16.0300   40.9010    6.6080 C.3   104  ASP104      0.1410
    103  CG        15.3170   42.0690    5.9660 C.2   104  ASP104      0.3668
    104  OD1       15.6760   43.2100    6.3360 O.co2 104  ASP104     -0.2456
    105  OD2       14.4370   41.8780    5.1030 O.co2 104  ASP104     -0.2456
@<TRIPOS>BOND
     1    85    84    2
     2    78    77    2
     3    84    83    1
     4    90    91    1
     5    93    92    2
     6    91    92    1
     7    91    94    1
     8    77    76    1
     9    77    82   am
    10    58    59    1
    11    58    55    1
    12    59    60    1
    13    83    82    1
    14    83    86    1
    15    76    79    1
    16    76    75    1
    17    79    81    1
    18    79    80    1
    19    74    73    2
    20    61    60   ar
    21    54    55    1
    22    60    62   ar
    23    94    95    1
    24    55    56    1
    25    86    87    1
    26    57    56    2
    27    75    73   am
    28    73    72    1
    29    56    63   am
    30    88    87   ar
    31    87    89   ar
    32    95    96   ar
    33    95    97   ar
    34    72    71    1
    35    63    64    1
    36    71    65   am
    37   105   103   ar
    38    65    64    1
    39    65    66    2
    40    64    67    1
    41    98    99    1
    42   103   104   ar
    43   103   102    1
    44   102    99    1
    45    67    68    1
    46    69    68   ar
    47    99   100    1
    48    68    70   ar
    49   100   101    2
    50     8     6   am
    51     4     3    2
    52     5     6    1
    53     5     2    1
    54     6     7    2
    55    45    43    1
    56    39    40    1
    57    42    41    2
    58    43    40    1
    59    43    44    1
    60     3     2    1
    61     3     9   am
    62     2     1    1
    63    14    13    1
    64    13    10    1
    65    40    41    1
    66    41    46   am
    67    49    48    2
    68    10     9    1
    69    10    11    1
    70    48    47    1
    71    46    47    1
    72    50    47    1
    73    50    51    1
    74    11    15   am
    75    11    12    2
    76    15    16    1
    77    35    34    2
    78    21    22    1
    79    21    17   am
    80    51    52    2
    81    51    53   am
    82    22    23    1
    83    28    27    2
    84    34    33    1
    85    24    23    2
    86    33    36    1
    87    33    32    1
    88    20    19    1
    89    38    36    1
    90    36    37    1
    91    23    25   am
    92    19    16    1
    93    16    17    1
    94    27    26    1
    95    17    18    2
    96    25    26    1
    97    26    29    1
    98    29    31    1
    99    29    30    1
