@<TRIPOS>MOLECULE
tmp/3dcqC00.pdb
 83 78 0 0 0
SMALL
GASTEIGER

@<TRIPOS>ATOM
      1  N         21.8320   30.0060  -25.9920 N.3    21  ASN21      -0.1225
      2  CA        22.1370   28.5920  -25.7890 C.3    21  ASN21       0.1785
      3  C         20.8010   27.9150  -25.5970 C.2    21  ASN21       0.2598
      4  O         20.4370   27.5660  -24.4850 O.2    21  ASN21      -0.2718
      5  CB        22.9790   28.4010  -24.5360 C.3    21  ASN21       0.1169
      6  CG        24.3520   28.9690  -24.6960 C.2    21  ASN21       0.2627
      7  OD1       25.2040   28.3730  -25.3430 O.2    21  ASN21      -0.2716
      8  ND2       24.5720   30.1490  -24.1370 N.am   21  ASN21      -0.0877
      9  N         20.0620   27.7360  -26.6840 N.am   22  SER22      -0.1938
     10  CA        18.7420   27.1320  -26.5590 C.3    22  SER22       0.2055
     11  C         18.1360   26.8670  -27.9150 C.2    22  SER22       0.2644
     12  O         18.4620   27.5360  -28.8990 O.2    22  SER22      -0.2714
     13  CB        17.8380   28.0880  -25.7860 C.3    22  SER22       0.2130
     14  OG        16.4800   27.7240  -25.8570 O.3    22  SER22      -0.2179
     15  N         17.2340   25.8990  -27.9750 N.am   23  SER23      -0.1935
     16  CA        16.6080   25.6160  -29.2530 C.3    23  SER23       0.2055
     17  C         15.6120   26.7350  -29.5270 C.2    23  SER23       0.2643
     18  O         15.2270   26.9860  -30.6770 O.2    23  SER23      -0.2714
     19  CB        15.9030   24.2560  -29.1990 C.3    23  SER23       0.2130
     20  OG        14.8050   24.3160  -28.3120 O.3    23  SER23      -0.2179
     21  N         15.1870   27.4170  -28.4710 N.am   24  GLY24      -0.1954
     22  CA        14.2400   28.4980  -28.6580 C.3    24  GLY24       0.1869
     23  C         14.8770   29.8010  -29.1060 C.2    24  GLY24       0.2309
     24  O         16.0240   30.1140  -28.7580 O.2    24  GLY24      -0.2863
     25  N         22.7230   27.2530  -30.1490 N.3    45  THR45      -0.1218
     26  CA        22.9180   26.3070  -29.0710 C.3    45  THR45       0.1862
     27  C         24.4260   26.2730  -28.9000 C.2    45  THR45       0.2287
     28  O         24.9800   25.3280  -28.3390 O.2    45  THR45      -0.2866
     29  CB        22.4030   24.8710  -29.4140 C.3    45  THR45       0.1770
     30  OG1       22.7770   24.5330  -30.7560 O.3    45  THR45      -0.2211
     31  CG2       20.9030   24.7920  -29.2430 C.3    45  THR45       0.0375
     32  N         16.1930   31.4360  -18.0620 N.3    95  GLU95      -0.1231
     33  CA        15.7320   30.0690  -18.2770 C.3    95  GLU95       0.1699
     34  C         14.4000   30.0810  -19.0170 C.2    95  GLU95       0.2592
     35  O         13.4130   30.6290  -18.5230 O.2    95  GLU95      -0.2718
     36  CB        15.5700   29.3710  -16.9340 C.3    95  GLU95       0.0402
     37  CG        15.0460   27.9350  -17.0230 C.3    95  GLU95       0.1161
     38  CD        15.8340   27.0950  -17.9760 C.2    95  GLU95       0.3649
     39  OE1       17.0830   26.9990  -17.8170 O.co2  95  GLU95      -0.2457
     40  OE2       15.2050   26.5250  -18.9030 O.co2  95  GLU95      -0.2457
     41  N         14.3780   29.4660  -20.1950 N.am   96  ASP96      -0.1960
     42  CA        13.1600   29.4500  -21.0010 C.3    96  ASP96       0.1840
     43  C         12.4420   28.1130  -20.8870 C.2    96  ASP96       0.2623
     44  O         11.3630   27.9360  -21.4630 O.2    96  ASP96      -0.2715
     45  CB        13.4920   29.7210  -22.4830 C.3    96  ASP96       0.1450
     46  CG        14.3440   28.6170  -23.1020 C.2    96  ASP96       0.3671
     47  OD1       14.3270   27.4940  -22.5610 O.co2  96  ASP96      -0.2456
     48  OD2       15.0320   28.8510  -24.1190 O.co2  96  ASP96      -0.2456
     49  N         13.0280   27.1840  -20.1370 N.am   97  GLY97      -0.1940
     50  CA        12.4350   25.8700  -20.0230 C.3    97  GLY97       0.2014
     51  C         12.4520   25.2200  -18.6560 C.2    97  GLY97       0.2640
     52  O         12.1850   25.8630  -17.6430 O.2    97  GLY97      -0.2714
     53  N         12.7810   23.9360  -18.6350 N.am   98  THR98      -0.1936
     54  CA        12.7810   23.1920  -17.3920 C.3    98  THR98       0.2028
     55  C         14.1150   22.5870  -16.9470 C.2    98  THR98       0.2642
     56  O         14.2200   22.1300  -15.8130 O.2    98  THR98      -0.2714
     57  CB        11.7270   22.0730  -17.4750 C.3    98  THR98       0.1808
     58  OG1       12.0710   21.1810  -18.5440 O.3    98  THR98      -0.2208
     59  CG2       10.3440   22.6720  -17.7540 C.3    98  THR98       0.0379
     60  N         15.1340   22.5870  -17.8050 N.am   99  ASP99      -0.1971
     61  CA        16.4060   21.9960  -17.4180 C.3    99  ASP99       0.1709
     62  C         17.2090   22.8850  -16.4620 C.2    99  ASP99       0.2293
     63  O         18.1740   22.4410  -15.8370 O.2    99  ASP99      -0.2864
     64  CB        17.2360   21.6340  -18.6620 C.3    99  ASP99       0.1436
     65  CG        17.7490   22.8460  -19.3860 C.2    99  ASP99       0.3671
     66  OD1       17.2060   23.9250  -19.1150 O.co2  99  ASP99      -0.2456
     67  OD2       18.6720   22.7230  -20.2170 O.co2  99  ASP99      -0.2456
     68  N         19.4190   25.3280  -16.8230 N.3   101  ASP101     -0.1239
     69  CA        20.8230   25.6240  -17.0110 C.3   101  ASP101      0.1674
     70  C         20.9930   27.1610  -17.0360 C.2   101  ASP101      0.2266
     71  O         22.1060   27.6760  -16.9770 O.2   101  ASP101     -0.2867
     72  CB        21.3690   24.9650  -18.2790 C.3   101  ASP101      0.1410
     73  CG        20.6160   25.3600  -19.5550 C.2   101  ASP101      0.3668
     74  OD1       19.6530   26.1570  -19.5430 O.co2 101  ASP101     -0.2456
     75  OD2       21.0310   24.8450  -20.5980 O.co2 101  ASP101     -0.2456
     76  N         19.9940   30.0150  -21.4810 N.3   104  ASP104     -0.1239
     77  CA        19.2430   30.1330  -22.7340 C.3   104  ASP104      0.1674
     78  C         19.5170   31.4510  -23.4240 C.2   104  ASP104      0.2266
     79  O         19.6660   31.5120  -24.6460 O.2   104  ASP104     -0.2867
     80  CB        17.7790   29.8800  -22.4370 C.3   104  ASP104      0.1410
     81  CG        17.5920   28.5180  -21.8210 C.2   104  ASP104      0.3668
     82  OD1       18.3500   27.6270  -22.2340 O.co2 104  ASP104     -0.2456
     83  OD2       16.7350   28.3160  -20.9510 O.co2 104  ASP104     -0.2456
@<TRIPOS>BOND
     1    30    29    1
     2    18    17    2
     3    25    26    1
     4    17    16    1
     5    17    21   am
     6    29    31    1
     7    29    26    1
     8    16    19    1
     9    16    15    1
    10    19    20    1
    11    23    24    2
    12    23    22    1
    13    26    27    1
    14    27    28    2
    15    12    11    2
    16    22    21    1
    17    15    11   am
    18    11    10    1
    19     9    10    1
    20     9     3   am
    21    10    13    1
    22     1     2    1
    23    14    13    1
    24     2     3    1
    25     2     5    1
    26     3     4    2
    27     7     6    2
    28     6     5    1
    29     6     8   am
    30    79    78    2
    31    48    46   ar
    32    78    77    1
    33    46    47   ar
    34    46    45    1
    35    77    80    1
    36    77    76    1
    37    45    42    1
    38    80    81    1
    39    82    81   ar
    40    81    83   ar
    41    44    43    2
    42    42    43    1
    43    42    41    1
    44    43    49   am
    45    75    73   ar
    46    67    65   ar
    47    41    34   am
    48    49    50    1
    49    50    51    1
    50    73    74   ar
    51    73    72    1
    52    65    66   ar
    53    65    64    1
    54    34    35    2
    55    34    33    1
    56    40    38   ar
    57    64    61    1
    58    51    53   am
    59    51    52    2
    60    53    54    1
    61    58    57    1
    62    72    69    1
    63    33    32    1
    64    33    36    1
    65    38    39   ar
    66    38    37    1
    67    60    61    1
    68    60    55   am
    69    59    57    1
    70    57    54    1
    71    61    62    1
    72    54    55    1
    73    70    69    1
    74    70    71    2
    75    37    36    1
    76    69    68    1
    77    55    56    2
    78    62    63    2
