@<TRIPOS>MOLECULE
tmp/3dctA00.pdb
 152 145 0 0 0
SMALL
GASTEIGER

@<TRIPOS>ATOM
      1  N        140.5360   31.8180   84.6900 N.3    52  VAL52      -0.1231
      2  CA       139.9390   32.5370   85.7970 C.3    52  VAL52       0.1692
      3  C        140.9440   33.6170   86.1740 C.2    52  VAL52       0.2591
      4  O        140.5900   34.7320   86.5470 O.2    52  VAL52      -0.2718
      5  CB       139.6870   31.6310   87.0130 C.3    52  VAL52       0.0266
      6  CG1      139.2770   32.4720   88.1970 C.3    52  VAL52       0.0020
      7  CG2      138.5890   30.6310   86.7020 C.3    52  VAL52       0.0020
      8  N        142.2170   33.2750   86.0420 N.am   53  GLN53      -0.1979
      9  CA       143.2920   34.2020   86.3400 C.3    53  GLN53       0.1601
     10  C        143.3020   35.3840   85.3750 C.2    53  GLN53       0.2287
     11  O        143.3180   36.5370   85.8040 O.2    53  GLN53      -0.2864
     12  CB       144.6350   33.4600   86.3260 C.3    53  GLN53       0.0394
     13  CG       144.9690   32.8910   87.6990 C.3    53  GLN53       0.0908
     14  CD       146.1740   31.9680   87.7050 C.2    53  GLN53       0.2608
     15  OE1      146.1160   30.8500   87.1940 O.2    53  GLN53      -0.2717
     16  NE2      147.2710   32.4290   88.2890 N.am   53  GLN53      -0.0878
     17  N        140.3630   37.8560   86.0580 N.3    56  VAL56      -0.1245
     18  CA       140.4870   38.7880   87.1680 C.3    56  VAL56       0.1561
     19  C        141.3640   39.9380   86.7260 C.2    56  VAL56       0.2260
     20  O        141.0230   41.0970   86.9180 O.2    56  VAL56      -0.2867
     21  CB       141.1400   38.1460   88.3980 C.3    56  VAL56       0.0252
     22  CG1      141.3650   39.2030   89.4570 C.3    56  VAL56       0.0019
     23  CG2      140.2590   37.0400   88.9410 C.3    56  VAL56       0.0019
     24  N        139.3300   42.0290   84.2730 N.3    59  THR59      -0.1203
     25  CA       138.2560   42.7420   84.9650 C.3    59  THR59       0.1994
     26  C        138.7960   43.8620   85.8350 C.2    59  THR59       0.2617
     27  O        138.2960   44.9720   85.7920 O.2    59  THR59      -0.2717
     28  CB       137.4010   41.8000   85.8600 C.3    59  THR59       0.1784
     29  OG1      136.7950   40.7870   85.0520 O.3    59  THR59      -0.2211
     30  CG2      136.2910   42.5830   86.5530 C.3    59  THR59       0.0376
     31  N        139.8220   43.5760   86.6260 N.am   60  LYS60      -0.1979
     32  CA       140.3940   44.6010   87.4830 C.3    60  LYS60       0.1596
     33  C        140.7060   45.8640   86.6510 C.2    60  LYS60       0.2287
     34  O        140.4600   46.9850   87.1090 O.2    60  LYS60      -0.2864
     35  CB       141.6630   44.0620   88.1910 C.3    60  LYS60       0.0298
     36  CG       141.5260   42.8690   89.1360 C.3    60  LYS60       0.0038
     37  CD       140.6710   43.4040   90.2690 C.3    60  LYS60       0.0206
     38  CE       141.0020   42.6540   91.5100 C.3    60  LYS60       0.1093
     39  NZ       140.1380   42.9920   92.6810 N.3    60  LYS60      -0.1314
     40  N        135.9630   49.5180   87.9770 N.3    65  PHE65      -0.1227
     41  CA       135.7300   48.2850   88.7240 C.3    65  PHE65       0.1736
     42  C        136.2940   48.4030   90.1330 C.2    65  PHE65       0.2595
     43  O        135.5980   48.1480   91.1180 O.2    65  PHE65      -0.2718
     44  CB       136.3730   47.0900   88.0170 C.3    65  PHE65       0.0547
     45  CG       135.9240   45.7590   88.5560 C.ar   65  PHE65      -0.0202
     46  CD1      134.7170   45.1940   88.1550 C.ar   65  PHE65      -0.0042
     47  CD2      136.6720   45.1040   89.5150 C.ar   65  PHE65      -0.0042
     48  CE1      134.2630   43.9980   88.7080 C.ar   65  PHE65      -0.0003
     49  CE2      136.2240   43.9150   90.0690 C.ar   65  PHE65      -0.0003
     50  CZ       135.0140   43.3630   89.6630 C.ar   65  PHE65      -0.0000
     51  N        137.5650   48.7740   90.2240 N.am   66  GLN66      -0.1979
     52  CA       138.2010   48.9370   91.5220 C.3    66  GLN66       0.1601
     53  C        137.7120   50.2510   92.0940 C.2    66  GLN66       0.2287
     54  O        138.4330   51.2440   92.0720 O.2    66  GLN66      -0.2864
     55  CB       139.7150   49.0050   91.3780 C.3    66  GLN66       0.0394
     56  CG       140.3470   47.8010   90.7330 C.3    66  GLN66       0.0908
     57  CD       141.7910   48.0700   90.4000 C.2    66  GLN66       0.2608
     58  OE1      142.4950   47.2150   89.8700 O.2    66  GLN66      -0.2717
     59  NE2      142.2440   49.2800   90.7090 N.am   66  GLN66      -0.0878
     60  N        133.7710   45.8750   97.4600 N.3    70  HIS70      -0.1226
     61  CA       134.5780   44.6800   97.2550 C.3    70  HIS70       0.1752
     62  C        133.8070   43.3790   97.2900 C.2    70  HIS70       0.2595
     63  O        134.2630   42.3880   96.7310 O.2    70  HIS70      -0.2718
     64  CB       135.7350   44.6390   98.2540 C.3    70  HIS70       0.0759
     65  CG       136.7280   45.7470   98.0640 C.ar   70  HIS70       0.0818
     66  ND1      138.0880   45.5250   97.9860 N.ar   70  HIS70      -0.2268
     67  CD2      136.5580   47.0850   97.9390 C.ar   70  HIS70       0.1154
     68  CE1      138.7110   46.6790   97.8210 C.ar   70  HIS70       0.1986
     69  NE2      137.8060   47.6430   97.7900 N.ar   70  HIS70      -0.2212
     70  N        132.6440   43.3810   97.9320 N.am   71  GLU71      -0.1979
     71  CA       131.8150   42.1790   97.9970 C.3    71  GLU71       0.1602
     72  C        131.0220   42.0550   96.6930 C.2    71  GLU71       0.2287
     73  O        130.5460   40.9700   96.3420 O.2    71  GLU71      -0.2864
     74  CB       130.8680   42.2460   99.1900 C.3    71  GLU71       0.0415
     75  CG       131.5690   42.3050  100.5240 C.3    71  GLU71       0.1163
     76  CD       132.3360   41.0760  100.8960 C.2    71  GLU71       0.3649
     77  OE1      132.1360   39.9910  100.2890 O.co2  71  GLU71      -0.2457
     78  OE2      133.0720   41.1850  101.8880 O.co2  71  GLU71      -0.2457
     79  N        132.4270   43.0320   93.8080 N.3    73  GLN73      -0.1231
     80  CA       133.4240   42.6050   92.8450 C.3    73  GLN73       0.1698
     81  C        133.4570   41.0720   92.8070 C.2    73  GLN73       0.2592
     82  O        133.5370   40.4830   91.7350 O.2    73  GLN73      -0.2718
     83  CB       134.7990   43.1530   93.2250 C.3    73  GLN73       0.0381
     84  CG       134.9140   44.6570   93.1360 C.3    73  GLN73       0.0905
     85  CD       136.2730   45.1440   93.5780 C.2    73  GLN73       0.2608
     86  OE1      136.6430   46.2910   93.3430 O.2    73  GLN73      -0.2717
     87  NE2      137.0260   44.2710   94.2300 N.am   73  GLN73      -0.0878
     88  N        133.3970   40.4230   93.9670 N.am   74  ILE74      -0.1980
     89  CA       133.4000   38.9660   93.9940 C.3    74  ILE74       0.1595
     90  C        132.1480   38.4270   93.2990 C.2    74  ILE74       0.2287
     91  O        132.2200   37.4580   92.5390 O.2    74  ILE74      -0.2864
     92  CB       133.4180   38.3880   95.4440 C.3    74  ILE74       0.0276
     93  CG1      134.8370   38.0040   95.8660 C.3    74  ILE74       0.0022
     94  CG2      132.5600   37.1380   95.5110 C.3    74  ILE74       0.0022
     95  CD1      135.7680   39.1580   96.0190 C.3    74  ILE74       0.0001
     96  N        132.5650   38.6250   89.5320 N.3    77  LEU77      -0.1231
     97  CA       133.5760   37.6590   89.0780 C.3    77  LEU77       0.1693
     98  C        132.9930   36.2530   89.1500 C.2    77  LEU77       0.2591
     99  O        133.1650   35.4380   88.2410 O.2    77  LEU77      -0.2718
    100  CB       134.8450   37.7530   89.9490 C.3    77  LEU77       0.0284
    101  CG       135.7700   38.9030   89.5860 C.3    77  LEU77       0.0019
    102  CD1      136.9500   38.9460   90.5180 C.3    77  LEU77       0.0001
    103  CD2      136.2390   38.7140   88.1620 C.3    77  LEU77       0.0001
    104  N        132.2870   35.9930   90.2430 N.am   78  LYS78      -0.1980
    105  CA       131.6590   34.6960   90.4610 C.3    78  LYS78       0.1596
    106  C        130.4990   34.4700   89.5080 C.2    78  LYS78       0.2287
    107  O        130.2290   33.3400   89.1160 O.2    78  LYS78      -0.2864
    108  CB       131.1610   34.5910   91.8940 C.3    78  LYS78       0.0298
    109  CG       132.2110   34.2210   92.9100 C.3    78  LYS78       0.0038
    110  CD       131.6590   33.1380   93.8290 C.3    78  LYS78       0.0206
    111  CE       131.5410   33.6220   95.2330 C.3    78  LYS78       0.1093
    112  NZ       130.8420   32.6180   96.0620 N.3    78  LYS78      -0.1314
    113  N        141.3750   24.7460   93.7570 N.3   220  PRO220     -0.2102
    114  CA       140.9280   25.6790   94.7980 C.3   220  PRO220      0.1504
    115  C        140.3640   26.9850   94.2270 C.2   220  PRO220      0.2575
    116  O        139.4660   27.6130   94.8050 O.2   220  PRO220     -0.2718
    117  CB       142.1720   25.9080   95.6620 C.3   220  PRO220      0.0282
    118  CG       143.2860   25.3020   94.8900 C.3   220  PRO220      0.0208
    119  CD       142.7150   24.2370   94.0540 C.3   220  PRO220      0.0893
    120  N        140.8910   27.3770   93.0700 N.am  221  LEU221     -0.1980
    121  CA       140.4490   28.5990   92.4060 C.3   221  LEU221      0.1596
    122  C        139.0690   28.4110   91.7920 C.2   221  LEU221      0.2287
    123  O        138.2070   29.2680   91.9490 O.2   221  LEU221     -0.2864
    124  CB       141.4590   29.0290   91.3350 C.3   221  LEU221      0.0297
    125  CG       141.1480   30.3610   90.6820 C.3   221  LEU221      0.0022
    126  CD1      140.9950   31.4100   91.7640 C.3   221  LEU221      0.0001
    127  CD2      142.2520   30.7220   89.7080 C.3   221  LEU221      0.0001
    128  N        136.2790   27.8720   94.4780 N.3   224  GLU224     -0.1231
    129  CA       135.9100   29.1230   95.1270 C.3   224  GLU224      0.1699
    130  C        134.9680   29.9520   94.2520 C.2   224  GLU224      0.2592
    131  O        133.9210   30.4150   94.7040 O.2   224  GLU224     -0.2718
    132  CB       137.1720   29.9150   95.4240 C.3   224  GLU224      0.0402
    133  CG       136.9190   31.1460   96.2590 C.3   224  GLU224      0.1161
    134  CD       138.1880   31.9600   96.4260 C.2   224  GLU224      0.3649
    135  OE1      139.1520   31.4340   97.0140 O.co2 224  GLU224     -0.2457
    136  OE2      138.2050   33.1210   95.9610 O.co2 224  GLU224     -0.2457
    137  N        135.3650   30.1230   92.9960 N.am  225  ILE225     -0.1980
    138  CA       134.5820   30.8850   92.0280 C.3   225  ILE225      0.1595
    139  C        133.2080   30.2600   91.7650 C.2   225  ILE225      0.2287
    140  O        132.2500   30.9620   91.4630 O.2   225  ILE225     -0.2864
    141  CB       135.3450   30.9790   90.7110 C.3   225  ILE225      0.0276
    142  CG1      134.7790   32.1070   89.8610 C.3   225  ILE225      0.0022
    143  CG2      135.2320   29.6850   89.9540 C.3   225  ILE225      0.0022
    144  CD1      135.2060   33.4650   90.3090 C.3   225  ILE225      0.0001
    145  N        131.5310   28.1240   93.9930 N.3   227  ASP227     -0.1239
    146  CA       130.9630   27.6010   95.2330 C.3   227  ASP227      0.1674
    147  C        130.7490   26.0970   95.1780 C.2   227  ASP227      0.2266
    148  O        129.6440   25.6130   94.9170 O.2   227  ASP227     -0.2867
    149  CB       129.6450   28.3270   95.5270 C.3   227  ASP227      0.1410
    150  CG       129.8300   29.8340   95.5460 C.2   227  ASP227      0.3668
    151  OD1      130.8310   30.2500   96.1620 O.co2 227  ASP227     -0.2456
    152  OD2      129.0040   30.5730   94.9610 O.co2 227  ASP227     -0.2456
@<TRIPOS>BOND
     1    24    25    1
     2     1     2    1
     3    25    26    1
     4    25    28    1
     5    29    28    1
     6    10    11    2
     7    10     9    1
     8    27    26    2
     9     2     3    1
    10     2     5    1
    11    26    31   am
    12    28    30    1
    13     8     3   am
    14     8     9    1
    15    17    18    1
    16     3     4    2
    17    12     9    1
    18    12    13    1
    19    31    32    1
    20    33    34    2
    21    33    32    1
    22     7     5    1
    23    19    20    2
    24    19    18    1
    25     5     6    1
    26    18    21    1
    27    15    14    2
    28    32    35    1
    29    13    14    1
    30    14    16   am
    31    40    41    1
    32    44    45    1
    33    44    41    1
    34    46    45   ar
    35    46    48   ar
    36   103   101    1
    37    35    36    1
    38    99    98    2
    39    21    23    1
    40    21    22    1
    41    45    47   ar
    42    48    50   ar
    43    41    42    1
    44    97    98    1
    45    97    96    1
    46    97   100    1
    47   107   106    2
    48    36    37    1
    49    98   104   am
    50   106   105    1
    51    47    49   ar
    52   101   100    1
    53   101   102    1
    54    50    49   ar
    55   127   125    1
    56   142   144    1
    57   142   141    1
    58    58    57    2
    59   143   141    1
    60    42    51   am
    61    42    43    2
    62    51    52    1
    63   104   105    1
    64    37    38    1
    65    57    59   am
    66    57    56    1
    67   105   108    1
    68   125   124    1
    69   125   126    1
    70   141   138    1
    71    56    55    1
    72   124   121    1
    73    55    52    1
    74   140   139    2
    75    38    39    1
    76    52    53    1
    77    82    81    2
    78   139   138    1
    79   122   123    2
    80   122   121    1
    81   108   109    1
    82   138   137    1
    83    54    53    2
    84   121   120    1
    85    91    90    2
    86    81    80    1
    87    81    88   am
    88    80    83    1
    89    80    79    1
    90   109   110    1
    91   137   130   am
    92   120   115   am
    93    84    83    1
    94    84    85    1
    95    90    89    1
    96    86    85    2
    97    85    87   am
    98   113   119    1
    99   113   114    1
   100   110   111    1
   101    88    89    1
   102   145   146    1
   103    89    92    1
   104   119   118    1
   105   115   114    1
   106   115   116    2
   107   130   131    2
   108   130   129    1
   109   128   129    1
   110   114   117    1
   111   118   117    1
   112   148   147    2
   113   152   150   ar
   114   129   132    1
   115   147   146    1
   116   111   112    1
   117   146   149    1
   118   132   133    1
   119    92    94    1
   120    92    93    1
   121   149   150    1
   122   150   151   ar
   123    93    95    1
   124   136   134   ar
   125   133   134    1
   126    73    72    2
   127   134   135   ar
   128    72    71    1
   129    63    62    2
   130    61    62    1
   131    61    60    1
   132    61    64    1
   133    62    70   am
   134    69    68   ar
   135    69    67   ar
   136    68    66   ar
   137    70    71    1
   138    67    65   ar
   139    66    65   ar
   140    71    74    1
   141    65    64    1
   142    74    75    1
   143    77    76   ar
   144    75    76    1
   145    76    78   ar
