@<TRIPOS>MOLECULE
tmp/3dcvA00.pdb
 158 147 0 0 0
SMALL
GASTEIGER

@<TRIPOS>ATOM
      1  N         24.9270   33.9180    5.2420 N.3    13  LEU13      -0.1231
      2  CA        24.1060   35.0840    5.5550 C.3    13  LEU13       0.1693
      3  C         22.8830   34.6760    6.3610 C.2    13  LEU13       0.2593
      4  O         22.4210   35.4230    7.2250 O.2    13  LEU13      -0.2718
      5  CB        23.6650   35.7960    4.2790 C.3    13  LEU13       0.0284
      6  CG        24.7910   36.5010    3.5350 C.3    13  LEU13       0.0019
      7  CD1       24.2530   37.1870    2.3010 C.3    13  LEU13       0.0001
      8  CD2       25.4500   37.4880    4.4520 C.3    13  LEU13       0.0001
      9  N         22.3610   33.4900    6.0640 N.am   14  GLY14      -0.1942
     10  CA        21.2010   32.9620    6.7540 C.3    14  GLY14       0.2014
     11  C         20.7450   31.6310    6.1810 C.2    14  GLY14       0.2639
     12  O         21.2330   31.1860    5.1360 O.2    14  GLY14      -0.2714
     13  N         19.8120   30.9870    6.8760 N.am   15  SER15      -0.1949
     14  CA        19.2430   29.7240    6.4160 C.3    15  SER15       0.1924
     15  C         17.9220   29.4210    7.1190 C.2    15  SER15       0.2314
     16  O         17.7210   29.7630    8.2870 O.2    15  SER15      -0.2863
     17  CB        20.2360   28.5640    6.6010 C.3    15  SER15       0.2116
     18  OG        20.6860   28.4690    7.9490 O.3    15  SER15      -0.2180
     19  N         13.9220   28.4920    2.9710 N.3    18  PHE18      -0.1241
     20  CA        14.3900   28.8300    1.6370 C.3    18  PHE18       0.1605
     21  C         15.6770   28.0790    1.2910 C.2    18  PHE18       0.2264
     22  O         15.9810   27.8550    0.1180 O.2    18  PHE18      -0.2867
     23  CB        14.6350   30.3360    1.5510 C.3    18  PHE18       0.0534
     24  CG        15.4170   30.8800    2.7040 C.ar   18  PHE18      -0.0203
     25  CD1       14.7810   31.2110    3.8940 C.ar   18  PHE18      -0.0042
     26  CD2       16.7940   31.0400    2.6120 C.ar   18  PHE18      -0.0042
     27  CE1       15.5050   31.7090    4.9780 C.ar   18  PHE18      -0.0003
     28  CE2       17.5280   31.5380    3.6860 C.ar   18  PHE18      -0.0003
     29  CZ        16.8830   31.8740    4.8740 C.ar   18  PHE18      -0.0000
     30  N         21.9370   30.6290    2.3360 N.3    21  VAL21      -0.1245
     31  CA        22.4560   31.7360    1.5420 C.3    21  VAL21       0.1561
     32  C         23.8270   32.1840    2.0420 C.2    21  VAL21       0.2260
     33  O         24.0140   32.4140    3.2340 O.2    21  VAL21      -0.2867
     34  CB        21.4970   32.9320    1.5930 C.3    21  VAL21       0.0252
     35  CG1       21.9730   34.0300    0.6800 C.3    21  VAL21       0.0019
     36  CG2       20.0980   32.4960    1.2130 C.3    21  VAL21       0.0019
     37  N         24.9920   36.9760   -3.8430 N.3    34  ALA34      -0.1245
     38  CA        24.5450   36.0780   -2.7940 C.3    34  ALA34       0.1562
     39  C         24.3670   34.7380   -3.4590 C.2    34  ALA34       0.2260
     40  O         23.7990   34.6580   -4.5370 O.2    34  ALA34      -0.2867
     41  CB        23.2380   36.5560   -2.1710 C.3    34  ALA34       0.0290
     42  N         22.7180   31.1440   -3.2330 N.3    36  LYS36      -0.1245
     43  CA        21.6580   30.4340   -2.5380 C.3    36  LYS36       0.1561
     44  C         21.6100   28.9710   -2.9450 C.2    36  LYS36       0.2260
     45  O         21.4870   28.6520   -4.1270 O.2    36  LYS36      -0.2867
     46  CB        20.3090   31.0890   -2.8160 C.3    36  LYS36       0.0271
     47  CG        19.1210   30.3770   -2.1750 C.3    36  LYS36       0.0035
     48  CD        17.8490   31.2050   -2.3150 C.3    36  LYS36       0.0206
     49  CE        16.6620   30.5440   -1.6290 C.3    36  LYS36       0.1093
     50  NZ        15.3820   31.2290   -1.9690 N.3    36  LYS36      -0.1314
     51  N         11.3160   29.1410   -8.0200 N.3    58  GLU58      -0.1245
     52  CA        12.0410   30.3890   -7.8290 C.3    58  GLU58       0.1567
     53  C         12.8360   30.8100   -9.0690 C.2    58  GLU58       0.2260
     54  O         12.8610   31.9910   -9.4280 O.2    58  GLU58      -0.2867
     55  CB        12.9470   30.3240   -6.5990 C.3    58  GLU58       0.0388
     56  CG        13.4690   31.7010   -6.1900 C.3    58  GLU58       0.1160
     57  CD        14.1260   31.7250   -4.8090 C.2    58  GLU58       0.3649
     58  OE1       14.5280   30.6380   -4.3080 O.co2  58  GLU58      -0.2457
     59  OE2       14.2400   32.8460   -4.2410 O.co2  58  GLU58      -0.2457
     60  N         14.9970   41.4330   -6.2170 N.3    73  ILE73      -0.1245
     61  CA        16.3910   41.0300   -6.4380 C.3    73  ILE73       0.1561
     62  C         16.5480   40.3990   -7.8010 C.2    73  ILE73       0.2260
     63  O         15.6330   39.7400   -8.3190 O.2    73  ILE73      -0.2867
     64  CB        16.9770   40.0250   -5.3950 C.3    73  ILE73       0.0252
     65  CG1       15.8750   39.1550   -4.7990 C.3    73  ILE73       0.0019
     66  CG2       17.8840   40.7300   -4.3460 C.3    73  ILE73       0.0019
     67  CD1       15.4520   38.0260   -5.7110 C.3    73  ILE73       0.0001
     68  N         22.4540   35.6080   -6.8750 N.3    89  LEU89      -0.1231
     69  CA        21.5770   36.7660   -6.7810 C.3    89  LEU89       0.1693
     70  C         22.3850   38.0120   -6.4990 C.2    89  LEU89       0.2592
     71  O         23.4730   37.9280   -5.9320 O.2    89  LEU89      -0.2718
     72  CB        20.5970   36.5720   -5.6280 C.3    89  LEU89       0.0284
     73  CG        19.8670   35.2400   -5.5890 C.3    89  LEU89       0.0019
     74  CD1       19.3650   34.9730   -4.1900 C.3    89  LEU89       0.0001
     75  CD2       18.7210   35.2220   -6.5840 C.3    89  LEU89       0.0001
     76  N         21.8490   39.1770   -6.8590 N.am   90  GLU90      -0.1966
     77  CA        22.5270   40.4180   -6.4980 C.3    90  GLU90       0.1733
     78  C         22.5970   40.5680   -4.9850 C.2    90  GLU90       0.2616
     79  O         21.8420   39.9300   -4.2470 O.2    90  GLU90      -0.2715
     80  CB        21.8880   41.6490   -7.1550 C.3    90  GLU90       0.0429
     81  CG        20.4600   41.9380   -6.7700 C.3    90  GLU90       0.1163
     82  CD        19.9640   43.2750   -7.3230 C.2    90  GLU90       0.3649
     83  OE1       18.8730   43.3090   -7.9400 O.co2  90  GLU90      -0.2457
     84  OE2       20.6670   44.2940   -7.1390 O.co2  90  GLU90      -0.2457
     85  N         23.5380   41.3820   -4.5270 N.am   91  ARG91      -0.1964
     86  CA        23.6700   41.6740   -3.1070 C.3    91  ARG91       0.1714
     87  C         24.0580   43.1270   -2.9170 C.2    91  ARG91       0.2458
     88  O         25.2100   43.4980   -3.1310 O.2    91  ARG91      -0.2730
     89  CB        24.7070   40.7730   -2.4350 C.3    91  ARG91       0.0347
     90  CG        24.9260   41.1240   -0.9620 C.3    91  ARG91       0.0492
     91  CD        25.6920   40.0450   -0.2140 C.3    91  ARG91       0.2205
     92  NE        27.0000   39.7980   -0.8120 N.pl3  91  ARG91      -0.0865
     93  CZ        28.1080   40.4490   -0.4780 C.cat  91  ARG91       0.5346
     94  NH1       29.2510   40.1630   -1.0880 N.pl3  91  ARG91       0.1354
     95  NH2       28.0700   41.3890    0.4600 N.pl3  91  ARG91       0.1354
     96  N         23.0860   43.9580   -2.5270 N.am   92  PRO92      -0.2727
     97  CA        23.3880   45.3550   -2.2210 C.3    92  PRO92       0.1402
     98  C         24.3580   45.3760   -1.0570 C.2    92  PRO92       0.2269
     99  O         24.3700   44.4400   -0.2610 O.2    92  PRO92      -0.2865
    100  CB        22.0350   45.9220   -1.7810 C.3    92  PRO92       0.0296
    101  CG        21.0090   44.9450   -2.2840 C.3    92  PRO92       0.0237
    102  CD        21.6780   43.6150   -2.2610 C.3    92  PRO92       0.0939
    103  N         23.7760   46.2060    3.3110 N.3    95  VAL95      -0.1245
    104  CA        22.3660   45.8550    3.2140 C.3    95  VAL95       0.1561
    105  C         21.7840   45.4530    4.5710 C.2    95  VAL95       0.2260
    106  O         22.5160   45.0380    5.4640 O.2    95  VAL95      -0.2867
    107  CB        22.1490   44.7230    2.1940 C.3    95  VAL95       0.0252
    108  CG1       22.5240   43.3880    2.8010 C.3    95  VAL95       0.0019
    109  CG2       20.7110   44.7090    1.7200 C.3    95  VAL95       0.0019
    110  N         18.0350   43.4960    6.2820 N.3    97  ASP97      -0.1239
    111  CA        16.7120   42.8950    6.2250 C.3    97  ASP97       0.1674
    112  C         15.6880   43.7630    6.9730 C.2    97  ASP97       0.2266
    113  O         15.9600   44.2160    8.0840 O.2    97  ASP97      -0.2867
    114  CB        16.8140   41.5100    6.8590 C.3    97  ASP97       0.1410
    115  CG        15.6810   40.6130    6.4740 C.2    97  ASP97       0.3668
    116  OD1       15.8620   39.8010    5.5390 O.co2  97  ASP97      -0.2456
    117  OD2       14.6070   40.7290    7.1030 O.co2  97  ASP97      -0.2456
    118  N         10.7260   39.9420    6.5980 N.3   140  GLU140     -0.1231
    119  CA        11.9060   39.0990    6.3870 C.3   140  GLU140      0.1699
    120  C         12.3020   38.9850    4.9170 C.2   140  GLU140      0.2592
    121  O         13.4850   38.8500    4.6040 O.2   140  GLU140     -0.2718
    122  CB        11.6740   37.6880    6.9240 C.3   140  GLU140      0.0402
    123  CG        11.1090   37.6310    8.3240 C.3   140  GLU140      0.1161
    124  CD        10.5870   36.2430    8.6850 C.2   140  GLU140      0.3649
    125  OE1       11.2020   35.2350    8.2540 O.co2 140  GLU140     -0.2457
    126  OE2        9.5560   36.1680    9.3980 O.co2 140  GLU140     -0.2457
    127  N         11.3150   39.0200    4.0210 N.am  141  ASN141     -0.1974
    128  CA        11.5750   38.8730    2.5880 C.3   141  ASN141      0.1688
    129  C         11.7850   40.1880    1.8530 C.2   141  ASN141      0.2292
    130  O         11.6680   40.2450    0.6340 O.2   141  ASN141     -0.2864
    131  CB        10.4580   38.0740    1.9150 C.3   141  ASN141      0.1181
    132  CG        10.4660   36.6200    2.3190 C.2   141  ASN141      0.2629
    133  OD1       11.5060   36.0820    2.6980 O.2   141  ASN141     -0.2716
    134  ND2        9.3060   35.9750    2.2490 N.am  141  ASN141     -0.0877
    135  N         14.6730   43.3000    1.5980 N.3   143  LEU143     -0.1245
    136  CA        15.9860   43.8630    1.9250 C.3   143  LEU143      0.1561
    137  C         16.0130   45.3740    1.7550 C.2   143  LEU143      0.2260
    138  O         15.3130   45.9250    0.9070 O.2   143  LEU143     -0.2867
    139  CB        17.0730   43.2760    1.0270 C.3   143  LEU143      0.0270
    140  CG        17.3030   41.7680    1.0550 C.3   143  LEU143      0.0019
    141  CD1       18.4300   41.3980    0.0990 C.3   143  LEU143      0.0001
    142  CD2       17.6110   41.3020    2.4550 C.3   143  LEU143      0.0001
    143  N         12.6010   39.7870   -1.9930 N.3   154  ILE154     -0.1231
    144  CA        13.4070   38.5800   -2.1650 C.3   154  ILE154      0.1692
    145  C         12.6430   37.3070   -1.8220 C.2   154  ILE154      0.2592
    146  O         11.5640   37.3550   -1.2330 O.2   154  ILE154     -0.2718
    147  CB        14.6890   38.5900   -1.2810 C.3   154  ILE154      0.0266
    148  CG1       14.3200   38.6190    0.1960 C.3   154  ILE154      0.0019
    149  CG2       15.6010   39.7630   -1.6220 C.3   154  ILE154      0.0020
    150  CD1       15.5130   38.5110    1.0990 C.3   154  ILE154      0.0001
    151  N         13.2330   36.1710   -2.1900 N.am  155  ASP155     -0.1974
    152  CA        12.7360   34.8520   -1.8010 C.3   155  ASP155      0.1709
    153  C         11.4090   34.4800   -2.4630 C.2   155  ASP155      0.2293
    154  O         10.3440   34.5400   -1.8480 O.2   155  ASP155     -0.2864
    155  CB        12.6380   34.7280   -0.2770 C.3   155  ASP155      0.1436
    156  CG        12.4430   33.2940    0.1790 C.2   155  ASP155      0.3671
    157  OD1       12.2810   32.4110   -0.6920 O.co2 155  ASP155     -0.2456
    158  OD2       12.4560   33.0480    1.4080 O.co2 155  ASP155     -0.2456
@<TRIPOS>BOND
     1    54    53    2
     2    53    52    1
     3    63    62    2
     4    51    52    1
     5    83    82   ar
     6    52    55    1
     7    62    61    1
     8    82    84   ar
     9    82    81    1
    10    80    81    1
    11    80    77    1
    12    68    69    1
    13    76    70   am
    14    76    77    1
    15    69    70    1
    16    69    72    1
    17    55    56    1
    18    75    73    1
    19    70    71    2
    20    77    78    1
    21    61    60    1
    22    61    64    1
    23    56    57    1
    24    67    65    1
    25    72    73    1
    26    73    74    1
    27    64    65    1
    28    64    66    1
    29    78    85   am
    30    78    79    2
    31    57    58   ar
    32    57    59   ar
    33    40    39    2
    34    85    86    1
    35    45    44    2
    36    37    38    1
    37    39    38    1
    38    42    43    1
    39    88    87    2
    40    86    87    1
    41    86    89    1
    42    44    43    1
    43    87    96   am
    44    46    43    1
    45    46    47    1
    46    38    41    1
    47    96   102    1
    48    96    97    1
    49   153   154    2
    50   153   152    1
    51    89    90    1
    52    48    47    1
    53    48    49    1
    54   101   102    1
    55   101   100    1
    56    97   100    1
    57    97    98    1
    58   151   145   am
    59   151   152    1
    60   144   143    1
    61   144   145    1
    62   144   147    1
    63    50    49    1
    64   145   146    2
    65   152   155    1
    66   149   147    1
    67   147   148    1
    68    94    93    1
    69    98    99    2
    70    90    91    1
    71    92    93    2
    72    92    91    1
    73   157   156   ar
    74    93    95    1
    75   155   156    1
    76   141   140    1
    77    22    21    2
    78   156   158   ar
    79   148   150    1
    80   130   129    2
    81    35    34    1
    82   138   137    2
    83   139   140    1
    84   139   136    1
    85   140   142    1
    86    36    34    1
    87    21    20    1
    88    31    34    1
    89    31    32    1
    90    31    30    1
    91    23    20    1
    92    23    24    1
    93   135   136    1
    94    20    19    1
    95   109   107    1
    96   137   136    1
    97   129   128    1
    98   131   132    1
    99   131   128    1
   100    32    33    2
   101   107   108    1
   102   107   104    1
   103   134   132   am
   104     7     6    1
   105   132   133    2
   106   128   127    1
   107    26    24   ar
   108    26    28   ar
   109    24    25   ar
   110   104   103    1
   111   104   105    1
   112     6     5    1
   113     6     8    1
   114    28    29   ar
   115    25    27   ar
   116   127   120   am
   117     5     2    1
   118   105   106    2
   119   121   120    2
   120    29    27   ar
   121   120   119    1
   122    12    11    2
   123     1     2    1
   124   116   115   ar
   125     2     3    1
   126     9     3   am
   127     9    10    1
   128    11    10    1
   129    11    13   am
   130   111   110    1
   131   111   114    1
   132   111   112    1
   133     3     4    2
   134   119   118    1
   135   119   122    1
   136    14    17    1
   137    14    13    1
   138    14    15    1
   139   115   114    1
   140   115   117   ar
   141    17    18    1
   142   122   123    1
   143   112   113    2
   144    15    16    2
   145   125   124   ar
   146   123   124    1
   147   124   126   ar
