@<TRIPOS>MOLECULE
tmp/3dcxA01.pdb
 104 98 0 0 0
SMALL
GASTEIGER

@<TRIPOS>ATOM
      1  N         59.0120  -27.6660   14.7100 N.3     4  ALA4       -0.1245
      2  CA        58.1980  -26.6550   15.3950 C.3     4  ALA4        0.1562
      3  C         56.9220  -27.3350   15.8980 C.2     4  ALA4        0.2260
      4  O         56.3390  -28.1800   15.2000 O.2     4  ALA4       -0.2867
      5  CB        57.8640  -25.4900   14.4580 C.3     4  ALA4        0.0290
      6  N         53.7180  -20.9560   17.0770 N.3    29  TYR29      -0.1241
      7  CA        54.6260  -22.0890   17.0640 C.3    29  TYR29       0.1605
      8  C         55.6990  -21.9360   18.1460 C.2    29  TYR29       0.2264
      9  O         56.1970  -20.8450   18.4170 O.2    29  TYR29      -0.2867
     10  CB        55.2810  -22.2420   15.6910 C.3    29  TYR29       0.0534
     11  CG        54.3080  -22.5580   14.5850 C.ar   29  TYR29      -0.0201
     12  CD1       53.7870  -23.8440   14.4420 C.ar   29  TYR29      -0.0009
     13  CD2       53.8870  -21.5780   13.6880 C.ar   29  TYR29      -0.0009
     14  CE1       52.8660  -24.1480   13.4260 C.ar   29  TYR29       0.0417
     15  CE2       52.9700  -21.8860   12.6500 C.ar   29  TYR29       0.0417
     16  CZ        52.4670  -23.1600   12.5400 C.ar   29  TYR29       0.1957
     17  OH        51.5570  -23.4800   11.5440 O.3    29  TYR29      -0.2866
     18  N         59.5790  -23.3480   19.1840 N.3    31  VAL31      -0.1245
     19  CA        60.7880  -24.0840   18.8410 C.3    31  VAL31       0.1561
     20  C         61.6180  -24.1100   20.1210 C.2    31  VAL31       0.2260
     21  O         62.1960  -23.0970   20.5140 O.2    31  VAL31      -0.2867
     22  CB        61.5570  -23.4680   17.6310 C.3    31  VAL31       0.0252
     23  CG1       62.8710  -24.2280   17.3880 C.3    31  VAL31       0.0019
     24  CG2       60.6970  -23.5250   16.3860 C.3    31  VAL31       0.0019
     25  N         57.0420  -18.0950   18.1670 N.3    35  PHE35      -0.1241
     26  CA        56.7220  -17.2130   17.0710 C.3    35  PHE35       0.1605
     27  C         55.1900  -17.1120   17.0210 C.2    35  PHE35       0.2264
     28  O         54.4990  -18.0980   16.7290 O.2    35  PHE35      -0.2867
     29  CB        57.2820  -17.8360   15.8070 C.3    35  PHE35       0.0534
     30  CG        57.4840  -16.8770   14.6960 C.ar   35  PHE35      -0.0203
     31  CD1       56.4360  -16.4700   13.9210 C.ar   35  PHE35      -0.0042
     32  CD2       58.7370  -16.3710   14.4270 C.ar   35  PHE35      -0.0042
     33  CE1       56.6290  -15.5760   12.8690 C.ar   35  PHE35      -0.0003
     34  CE2       58.9310  -15.4750   13.3760 C.ar   35  PHE35      -0.0003
     35  CZ        57.8650  -15.0980   12.5920 C.ar   35  PHE35      -0.0000
     36  N         51.6540  -15.3220   15.7380 N.3    37  PHE37      -0.1241
     37  CA        50.9330  -14.4800   14.7790 C.3    37  PHE37       0.1605
     38  C         49.6570  -14.0170   15.4110 C.2    37  PHE37       0.2264
     39  O         48.7920  -14.8320   15.7320 O.2    37  PHE37      -0.2867
     40  CB        50.5650  -15.2390   13.5070 C.3    37  PHE37       0.0534
     41  CG        51.7290  -15.7290   12.7360 C.ar   37  PHE37      -0.0203
     42  CD1       52.4280  -16.8700   13.1520 C.ar   37  PHE37      -0.0042
     43  CD2       52.1220  -15.0830   11.5720 C.ar   37  PHE37      -0.0042
     44  CE1       53.5210  -17.3350   12.4240 C.ar   37  PHE37      -0.0003
     45  CE2       53.2140  -15.5380   10.8320 C.ar   37  PHE37      -0.0003
     46  CZ        53.9080  -16.6570   11.2510 C.ar   37  PHE37      -0.0000
     47  N         61.8190  -18.3810    5.2990 N.3    81  LEU81      -0.1245
     48  CA        61.0590  -17.1280    5.2520 C.3    81  LEU81       0.1561
     49  C         62.0080  -15.9770    5.5890 C.2    81  LEU81       0.2260
     50  O         62.6980  -16.0220    6.6050 O.2    81  LEU81      -0.2867
     51  CB        59.8910  -17.1550    6.2480 C.3    81  LEU81       0.0270
     52  CG        59.0060  -15.9150    6.4870 C.3    81  LEU81       0.0019
     53  CD1       58.1190  -15.6530    5.2720 C.3    81  LEU81       0.0001
     54  CD2       58.1470  -16.0870    7.7360 C.3    81  LEU81       0.0001
     55  N         63.8760  -16.9450    8.9620 N.3    94  LYS94      -0.1231
     56  CA        63.3270  -18.0080    9.8060 C.3    94  LYS94       0.1693
     57  C         63.1120  -19.2810    8.9900 C.2    94  LYS94       0.2592
     58  O         62.6190  -19.2320    7.8580 O.2    94  LYS94      -0.2718
     59  CB        62.0430  -17.5310   10.4880 C.3    94  LYS94       0.0285
     60  CG        62.2600  -16.4350   11.5480 C.3    94  LYS94       0.0035
     61  CD        62.9320  -16.9430   12.8390 C.3    94  LYS94       0.0206
     62  CE        61.9270  -17.0460   13.9950 C.3    94  LYS94       0.1093
     63  NZ        62.4820  -17.4590   15.3330 N.3    94  LYS94      -0.1314
     64  N         63.5580  -20.4130    9.5410 N.am   95  GLU95      -0.1966
     65  CA        63.3090  -21.7110    8.9150 C.3    95  GLU95       0.1733
     66  C         61.8780  -22.0870    9.1440 C.2    95  GLU95       0.2616
     67  O         61.3920  -22.0200   10.2790 O.2    95  GLU95      -0.2715
     68  CB        64.1880  -22.8180    9.5080 C.3    95  GLU95       0.0429
     69  CG        65.4500  -23.1050    8.7280 C.3    95  GLU95       0.1163
     70  CD        66.3090  -24.1560    9.4250 C.2    95  GLU95       0.3649
     71  OE1       65.7700  -25.2420    9.7870 O.co2  95  GLU95      -0.2457
     72  OE2       67.5170  -23.8750    9.6250 O.co2  95  GLU95      -0.2457
     73  N         61.1980  -22.4620    8.0630 N.am   96  LEU96      -0.1963
     74  CA        59.8460  -22.9530    8.1550 C.3    96  LEU96       0.1728
     75  C         59.9390  -24.4440    8.4570 C.2    96  LEU96       0.2616
     76  O         59.8130  -25.2800    7.5640 O.2    96  LEU96      -0.2715
     77  CB        59.0710  -22.6530    6.8640 C.3    96  LEU96       0.0311
     78  CG        58.8630  -21.1520    6.5720 C.3    96  LEU96       0.0022
     79  CD1       58.1180  -20.8850    5.2700 C.3    96  LEU96       0.0001
     80  CD2       58.1840  -20.4220    7.7500 C.3    96  LEU96       0.0001
     81  N         60.1710  -24.7450    9.7350 N.am   97  LYS97      -0.1977
     82  CA        60.5010  -26.1070   10.1770 C.3    97  LYS97       0.1596
     83  C         59.3630  -27.0830    9.9480 C.2    97  LYS97       0.2287
     84  O         58.1920  -26.6900    9.8860 O.2    97  LYS97      -0.2864
     85  CB        60.8990  -26.1170   11.6480 C.3    97  LYS97       0.0298
     86  CG        62.1010  -25.2590   11.9100 C.3    97  LYS97       0.0038
     87  CD        62.4160  -25.1160   13.3710 C.3    97  LYS97       0.0206
     88  CE        63.6990  -24.3260   13.5280 C.3    97  LYS97       0.1093
     89  NZ        64.8090  -24.9690   12.7530 N.3    97  LYS97      -0.1314
     90  N         55.3810  -26.9240   10.6680 N.3   100  THR100     -0.1218
     91  CA        54.7120  -25.6330   10.4370 C.3   100  THR100      0.1862
     92  C         53.7440  -25.7630    9.2510 C.2   100  THR100      0.2287
     93  O         53.9330  -26.5970    8.3640 O.2   100  THR100     -0.2866
     94  CB        55.7040  -24.4360   10.2240 C.3   100  THR100      0.1770
     95  OG1       56.5120  -24.6530    9.0730 O.3   100  THR100     -0.2211
     96  CG2       56.6130  -24.1880   11.4630 C.3   100  THR100      0.0375
     97  N         51.0860  -20.0920    7.1650 N.3   105  ILE105     -0.1245
     98  CA        51.9780  -19.0120    7.5340 C.3   105  ILE105      0.1561
     99  C         51.9720  -17.9350    6.4480 C.2   105  ILE105      0.2260
    100  O         51.7720  -16.7710    6.7130 O.2   105  ILE105     -0.2867
    101  CB        53.4250  -19.5590    7.8050 C.3   105  ILE105      0.0252
    102  CG1       53.4720  -20.1640    9.2180 C.3   105  ILE105      0.0019
    103  CG2       54.4790  -18.4560    7.6090 C.3   105  ILE105      0.0019
    104  CD1       54.7690  -20.9200    9.5150 C.3   105  ILE105      0.0001
@<TRIPOS>BOND
     1    48    47    1
     2    48    49    1
     3    48    51    1
     4    79    78    1
     5    53    52    1
     6    49    50    2
     7    51    52    1
     8    99   100    2
     9    99    98    1
    10    52    54    1
    11    78    77    1
    12    78    80    1
    13    77    74    1
    14    97    98    1
    15    98   101    1
    16    76    75    2
    17   103   101    1
    18   101   102    1
    19    58    57    2
    20    73    74    1
    21    73    66   am
    22    74    75    1
    23    93    92    2
    24    75    81   am
    25    69    70    1
    26    69    68    1
    27    65    66    1
    28    65    68    1
    29    65    64    1
    30    55    56    1
    31    57    64   am
    32    57    56    1
    33    95    94    1
    34    66    67    2
    35   102   104    1
    36    92    91    1
    37    70    72   ar
    38    70    71   ar
    39    81    82    1
    40    56    59    1
    41    84    83    2
    42    83    82    1
    43    82    85    1
    44    94    91    1
    45    94    96    1
    46    91    90    1
    47    59    60    1
    48    45    46   ar
    49    45    43   ar
    50    46    44   ar
    51    17    16    1
    52    60    61    1
    53    43    41   ar
    54    85    86    1
    55    86    87    1
    56    44    42   ar
    57    16    15   ar
    58    16    14   ar
    59    35    33   ar
    60    35    34   ar
    61    15    13   ar
    62    41    42   ar
    63    41    40    1
    64    89    88    1
    65    61    62    1
    66    33    31   ar
    67    87    88    1
    68    34    32   ar
    69    14    12   ar
    70    40    37    1
    71    13    11   ar
    72    31    30   ar
    73    62    63    1
    74    32    30   ar
    75    12    11   ar
    76     5     2    1
    77    11    10    1
    78    30    29    1
    79     1     2    1
    80    37    38    1
    81    37    36    1
    82     4     3    2
    83     2     3    1
    84    38    39    2
    85    10     7    1
    86    29    26    1
    87    24    22    1
    88    28    27    2
    89    27    26    1
    90     7     6    1
    91     7     8    1
    92    26    25    1
    93    23    22    1
    94    22    19    1
    95     8     9    2
    96    19    18    1
    97    19    20    1
    98    20    21    2
