@<TRIPOS>MOLECULE
tmp/3dd5A00.pdb
 108 102 0 0 0
SMALL
GASTEIGER

@<TRIPOS>ATOM
      1  N          6.8170  -34.2210   40.2020 N.3    26  ALA26      -0.1231
      2  CA         8.0810  -34.4520   40.8830 C.3    26  ALA26       0.1694
      3  C          8.7520  -35.6910   40.3070 C.2    26  ALA26       0.2592
      4  O          8.0970  -36.4810   39.6200 O.2    26  ALA26      -0.2718
      5  CB         7.8290  -34.6310   42.3720 C.3    26  ALA26       0.0304
      6  N         10.0470  -35.8590   40.5890 N.am   27  SER27      -0.1952
      7  CA        10.8060  -37.0540   40.1990 C.3    27  SER27       0.1924
      8  C         10.1040  -38.3110   40.6660 C.2    27  SER27       0.2314
      9  O          9.7010  -38.4000   41.8320 O.2    27  SER27      -0.2863
     10  CB        12.2030  -37.0470   40.8170 C.3    27  SER27       0.2116
     11  OG        12.8020  -35.7680   40.7760 O.3    27  SER27      -0.2180
     12  N         15.5760  -38.7820   38.5420 N.3    67  LEU67      -0.1245
     13  CA        16.3040  -38.1540   39.6330 C.3    67  LEU67       0.1561
     14  C         17.6240  -37.5160   39.2120 C.2    67  LEU67       0.2260
     15  O         18.0870  -36.5800   39.8620 O.2    67  LEU67      -0.2867
     16  CB        16.5090  -39.1490   40.7720 C.3    67  LEU67       0.0270
     17  CG        15.2930  -39.3760   41.6750 C.3    67  LEU67       0.0019
     18  CD1       15.3580  -40.7390   42.3190 C.3    67  LEU67       0.0001
     19  CD2       15.1420  -38.3070   42.7310 C.3    67  LEU67       0.0001
     20  N         17.7510  -33.5610   38.3150 N.3    70  ASN70      -0.1240
     21  CA        17.7930  -32.5450   39.3720 C.3    70  ASN70       0.1653
     22  C         19.1790  -31.8850   39.4560 C.2    70  ASN70       0.2266
     23  O         19.2890  -30.7060   39.7940 O.2    70  ASN70      -0.2867
     24  CB        17.3550  -33.1120   40.7220 C.3    70  ASN70       0.1155
     25  CG        15.8960  -33.5690   40.7260 C.2    70  ASN70       0.2627
     26  OD1       14.9780  -32.7580   40.8380 O.2    70  ASN70      -0.2716
     27  ND2       15.6830  -34.8700   40.6210 N.am   70  ASN70      -0.0877
     28  N          5.8230  -29.4450   41.2730 N.3   105  TYR105     -0.1227
     29  CA         6.2380  -30.0200   42.5350 C.3   105  TYR105      0.1736
     30  C          7.6330  -30.5920   42.3830 C.2   105  TYR105      0.2596
     31  O          7.8950  -31.3870   41.4920 O.2   105  TYR105     -0.2718
     32  CB         5.2160  -31.0560   43.0170 C.3   105  TYR105      0.0548
     33  CG         5.6350  -31.9490   44.1590 C.ar  105  TYR105     -0.0200
     34  CD1        6.3620  -31.4520   45.2450 C.ar  105  TYR105     -0.0009
     35  CD2        5.2700  -33.3010   44.1690 C.ar  105  TYR105     -0.0009
     36  CE1        6.7460  -32.2900   46.3000 C.ar  105  TYR105      0.0417
     37  CE2        5.6400  -34.1540   45.2230 C.ar  105  TYR105      0.0417
     38  CZ         6.3690  -33.6390   46.2840 C.ar  105  TYR105      0.1957
     39  OH         6.7200  -34.4580   47.3210 O.3   105  TYR105     -0.2866
     40  N          8.5290  -30.1260   43.2420 N.am  106  SER106     -0.1938
     41  CA         9.9290  -30.5470   43.2720 C.3   106  SER106      0.2055
     42  C         10.6660  -30.3130   41.9360 C.2   106  SER106      0.2642
     43  O         10.7600  -29.1740   41.5150 O.2   106  SER106     -0.2714
     44  CB        10.0430  -31.9710   43.7780 C.3   106  SER106      0.2130
     45  OG        11.2680  -32.1210   44.4680 O.3   106  SER106     -0.2179
     46  N         11.1650  -31.3550   41.2690 N.am  107  GLN107     -0.1976
     47  CA        11.7880  -31.1690   39.9480 C.3   107  GLN107      0.1601
     48  C         10.8790  -30.3870   38.9970 C.2   107  GLN107      0.2287
     49  O         11.3450  -29.5810   38.2200 O.2   107  GLN107     -0.2864
     50  CB        12.1990  -32.4830   39.2980 C.3   107  GLN107      0.0394
     51  CG        13.0910  -32.2490   38.1130 C.3   107  GLN107      0.0908
     52  CD        13.4830  -33.4900   37.3380 C.2   107  GLN107      0.2608
     53  OE1       14.0100  -33.3770   36.2400 O.2   107  GLN107     -0.2717
     54  NE2       13.2310  -34.6800   37.8970 N.am  107  GLN107     -0.0878
     55  N         12.8070  -26.4320   44.1970 N.3   136  THR136     -0.1218
     56  CA        14.2180  -26.8640   44.2510 C.3   136  THR136      0.1862
     57  C         15.2500  -25.7780   43.8820 C.2   136  THR136      0.2287
     58  O         16.4550  -25.9980   43.9860 O.2   136  THR136     -0.2866
     59  CB        14.4970  -28.0910   43.3730 C.3   136  THR136      0.1770
     60  OG1       14.3320  -27.7290   42.0050 O.3   136  THR136     -0.2211
     61  CG2       13.5750  -29.2300   43.7260 C.3   136  THR136      0.0375
     62  N         15.2840  -29.6260   49.8080 N.3   163  VAL163     -0.1245
     63  CA        15.4290  -28.9680   48.4890 C.3   163  VAL163      0.1561
     64  C         15.1400  -27.4480   48.4620 C.2   163  VAL163      0.2260
     65  O         15.5030  -26.7580   47.5280 O.2   163  VAL163     -0.2867
     66  CB        14.5910  -29.6930   47.3980 C.3   163  VAL163      0.0252
     67  CG1       14.7760  -31.2010   47.5010 C.3   163  VAL163      0.0019
     68  CG2       13.1000  -29.3240   47.4970 C.3   163  VAL163      0.0019
     69  N         20.0460  -30.8210   47.5610 N.3   168  LEU168     -0.1231
     70  CA        19.2860  -31.9330   47.1060 C.3   168  LEU168      0.1693
     71  C         19.6040  -33.1180   48.0120 C.2   168  LEU168      0.2592
     72  O         20.7400  -33.6030   48.0340 O.2   168  LEU168     -0.2718
     73  CB        19.7280  -32.2190   45.6630 C.3   168  LEU168      0.0284
     74  CG        19.0670  -31.5710   44.4240 C.3   168  LEU168      0.0019
     75  CD1       18.3510  -30.2300   44.6620 C.3   168  LEU168      0.0001
     76  CD2       20.0630  -31.5020   43.2450 C.3   168  LEU168      0.0001
     77  N         18.6320  -33.5450   48.8040 N.am  169  PHE169     -0.1962
     78  CA        18.7370  -34.8550   49.4240 C.3   169  PHE169      0.1771
     79  C         17.8030  -35.7130   48.6340 C.2   169  PHE169      0.2619
     80  O         16.7410  -35.2550   48.2100 O.2   169  PHE169     -0.2715
     81  CB        18.3370  -34.9000   50.9020 C.3   169  PHE169      0.0574
     82  CG        19.1360  -33.9840   51.8010 C.ar  169  PHE169     -0.0200
     83  CD1       20.3760  -33.4930   51.4210 C.ar  169  PHE169     -0.0042
     84  CD2       18.6380  -33.6330   53.0550 C.ar  169  PHE169     -0.0042
     85  CE1       21.0860  -32.6510   52.2580 C.ar  169  PHE169     -0.0003
     86  CE2       19.3480  -32.7920   53.8950 C.ar  169  PHE169     -0.0003
     87  CZ        20.5740  -32.3130   53.5050 C.ar  169  PHE169     -0.0000
     88  N         18.2360  -36.9450   48.4150 N.am  170  ILE170     -0.1963
     89  CA        17.4990  -37.9330   47.6730 C.3   170  ILE170      0.1727
     90  C         17.3710  -39.1410   48.5890 C.2   170  ILE170      0.2616
     91  O         18.3200  -39.8890   48.7990 O.2   170  ILE170     -0.2715
     92  CB        18.2170  -38.2650   46.3240 C.3   170  ILE170      0.0290
     93  CG1       17.9630  -37.1370   45.3180 C.3   170  ILE170      0.0022
     94  CG2       17.7780  -39.6250   45.7370 C.3   170  ILE170      0.0023
     95  CD1       18.8170  -37.1990   44.0860 C.3   170  ILE170      0.0001
     96  N         16.1940  -39.2950   49.1710 N.am  171  LEU171     -0.1977
     97  CA        15.8630  -40.4850   49.9300 C.3   171  LEU171      0.1596
     98  C         14.3590  -40.4930   50.1670 C.2   171  LEU171      0.2287
     99  O         13.7490  -39.4170   50.3000 O.2   171  LEU171     -0.2864
    100  CB        16.6090  -40.4980   51.2660 C.3   171  LEU171      0.0297
    101  CG        16.0090  -39.6870   52.4020 C.3   171  LEU171      0.0022
    102  CD1       16.5170  -40.1810   53.7640 C.3   171  LEU171      0.0001
    103  CD2       16.2880  -38.2220   52.1830 C.3   171  LEU171      0.0001
    104  N         10.8270  -40.0260   51.3550 N.3   173  ALA173     -0.1245
    105  CA        10.2010  -39.1770   52.3550 C.3   173  ALA173      0.1562
    106  C          8.6960  -39.0160   52.0880 C.2   173  ALA173      0.2260
    107  O          8.1960  -39.3350   50.9920 O.2   173  ALA173     -0.2867
    108  CB        10.8750  -37.8130   52.3850 C.3   173  ALA173      0.0290
@<TRIPOS>BOND
     1    53    52    2
     2    52    54   am
     3    52    51    1
     4    51    50    1
     5    49    48    2
     6    20    21    1
     7    12    13    1
     8    48    47    1
     9    14    13    1
    10    14    15    2
    11    50    47    1
    12    21    22    1
    13    21    24    1
    14    22    23    2
    15     4     3    2
    16    13    16    1
    17    47    46    1
    18     7     6    1
    19     7     8    1
    20     7    10    1
    21     1     2    1
    22     3     6   am
    23     3     2    1
    24    27    25   am
    25     8     9    2
    26    24    25    1
    27    25    26    2
    28    16    17    1
    29    11    10    1
    30     2     5    1
    31    46    42   am
    32    28    29    1
    33    31    30    2
    34    43    42    2
    35    17    18    1
    36    17    19    1
    37    42    41    1
    38    60    59    1
    39    30    29    1
    40    30    40   am
    41    29    32    1
    42    32    33    1
    43    40    41    1
    44    76    74    1
    45    41    44    1
    46    59    61    1
    47    59    56    1
    48    44    45    1
    49    57    58    2
    50    57    56    1
    51    95    93    1
    52    33    35   ar
    53    33    34   ar
    54    35    37   ar
    55    55    56    1
    56    74    75    1
    57    74    73    1
    58    37    38   ar
    59    34    36   ar
    60    93    92    1
    61    73    70    1
    62    94    92    1
    63    38    36   ar
    64    38    39    1
    65    92    89    1
    66    70    69    1
    67    70    71    1
    68    66    68    1
    69    66    67    1
    70    66    63    1
    71    65    64    2
    72    89    88    1
    73    89    90    1
    74    71    72    2
    75    71    77   am
    76    80    79    2
    77    88    79   am
    78    64    63    1
    79    63    62    1
    80    90    91    2
    81    90    96   am
    82    79    78    1
    83    77    78    1
    84    96    97    1
    85    78    81    1
    86    97    98    1
    87    97   100    1
    88    98    99    2
    89    81    82    1
    90   107   106    2
    91   100   101    1
    92   104   105    1
    93    83    82   ar
    94    83    85   ar
    95    82    84   ar
    96   106   105    1
    97   103   101    1
    98    85    87   ar
    99   105   108    1
   100   101   102    1
   101    84    86   ar
   102    87    86   ar
