@<TRIPOS>MOLECULE
tmp/3dd7A00.pdb
 146 139 0 0 0
SMALL
GASTEIGER

@<TRIPOS>ATOM
      1  N          4.8510    0.7310  -11.6420 N.3     8  GLU8       -0.1245
      2  CA         5.5490    1.0220  -12.8840 C.3     8  GLU8        0.1567
      3  C          6.5240   -0.0940  -13.2280 C.2     8  GLU8        0.2260
      4  O          6.6660   -0.4570  -14.3870 O.2     8  GLU8       -0.2867
      5  CB         6.2880    2.3480  -12.8020 C.3     8  GLU8        0.0388
      6  CG         6.8470    2.7950  -14.1280 C.3     8  GLU8        0.1160
      7  CD         7.1220    4.2850  -14.1600 C.2     8  GLU8        0.3649
      8  OE1        7.6910    4.8220  -13.1820 O.co2   8  GLU8       -0.2457
      9  OE2        6.7400    4.9260  -15.1580 O.co2   8  GLU8       -0.2457
     10  N          4.4270   -2.8760  -14.6270 N.3    11  ALA11      -0.1231
     11  CA         3.9300   -2.5800  -15.9750 C.3    11  ALA11       0.1694
     12  C          5.0640   -2.7110  -17.0040 C.2    11  ALA11       0.2591
     13  O          4.8600   -3.2150  -18.1150 O.2    11  ALA11      -0.2718
     14  CB         3.3150   -1.2000  -16.0270 C.3    11  ALA11       0.0304
     15  N          6.2560   -2.2690  -16.6190 N.am   12  LEU12      -0.1980
     16  CA         7.4170   -2.3520  -17.4990 C.3    12  LEU12       0.1596
     17  C          7.7510   -3.8190  -17.7780 C.2    12  LEU12       0.2287
     18  O          7.9490   -4.2030  -18.9240 O.2    12  LEU12      -0.2864
     19  CB         8.6180   -1.6360  -16.8810 C.3    12  LEU12       0.0297
     20  CG         9.9060   -1.5400  -17.7020 C.3    12  LEU12       0.0022
     21  CD1       10.7840   -0.4330  -17.1170 C.3    12  LEU12       0.0001
     22  CD2       10.6990   -2.8740  -17.7430 C.3    12  LEU12       0.0001
     23  N          4.9610   -5.3090  -20.0960 N.3    15  ALA15      -0.1231
     24  CA         5.1360   -4.8450  -21.4930 C.3    15  ALA15       0.1694
     25  C          6.3100   -5.5520  -22.1780 C.2    15  ALA15       0.2592
     26  O          6.2680   -5.8470  -23.3810 O.2    15  ALA15      -0.2718
     27  CB         5.3170   -3.3480  -21.5290 C.3    15  ALA15       0.0304
     28  N          7.3540   -5.8140  -21.4010 N.am   16  ASN16      -0.1974
     29  CA         8.5340   -6.5000  -21.8930 C.3    16  ASN16       0.1688
     30  C          8.2050   -7.9600  -22.2340 C.2    16  ASN16       0.2292
     31  O          8.6250   -8.4920  -23.2830 O.2    16  ASN16      -0.2864
     32  CB         9.6390   -6.4330  -20.8470 C.3    16  ASN16       0.1181
     33  CG        10.9510   -6.8590  -21.4090 C.2    16  ASN16       0.2629
     34  OD1       11.2200   -8.0310  -21.5220 O.2    16  ASN16      -0.2716
     35  ND2       11.7610   -5.9050  -21.7870 N.am   16  ASN16      -0.0877
     36  N          6.2430   -8.0260  -25.4900 N.3    19  ARG19      -0.1231
     37  CA         6.9940   -7.6930  -26.6870 C.3    19  ARG19       0.1694
     38  C          8.0270   -8.7650  -27.0360 C.2    19  ARG19       0.2592
     39  O          8.1600   -9.1450  -28.2040 O.2    19  ARG19      -0.2718
     40  CB         7.6320   -6.3060  -26.5380 C.3    19  ARG19       0.0321
     41  CG         8.5850   -5.9480  -27.6540 C.3    19  ARG19       0.0489
     42  CD         8.7230   -4.4770  -27.7670 C.3    19  ARG19       0.2205
     43  NE         9.8270   -4.1210  -28.6640 N.pl3  19  ARG19      -0.0865
     44  CZ        10.1280   -2.8760  -28.9750 C.cat  19  ARG19       0.5346
     45  NH1        9.3640   -1.8880  -28.5140 N.pl3  19  ARG19       0.1354
     46  NH2       11.1760   -2.6150  -29.7640 N.pl3  19  ARG19       0.1354
     47  N          8.7260   -9.2650  -26.0200 N.am   20  TYR20      -0.1976
     48  CA         9.8790  -10.1530  -26.2200 C.3    20  TYR20       0.1639
     49  C          9.6450  -11.6130  -25.8330 C.2    20  TYR20       0.2290
     50  O         10.4350  -12.4960  -26.1980 O.2    20  TYR20      -0.2864
     51  CB        11.0840   -9.6070  -25.4600 C.3    20  TYR20       0.0560
     52  CG        11.5440   -8.2620  -25.9820 C.ar   20  TYR20      -0.0198
     53  CD1       12.2460   -8.1520  -27.1810 C.ar   20  TYR20      -0.0009
     54  CD2       11.2840   -7.0990  -25.2660 C.ar   20  TYR20      -0.0009
     55  CE1       12.6820   -6.8900  -27.6520 C.ar   20  TYR20       0.0417
     56  CE2       11.6890   -5.8600  -25.7340 C.ar   20  TYR20       0.0417
     57  CZ        12.3930   -5.7580  -26.9080 C.ar   20  TYR20       0.1957
     58  OH        12.7780   -4.5160  -27.3170 O.3    20  TYR20      -0.2866
     59  N         17.4350   -4.4670  -15.9560 N.3    77  LEU77      -0.1231
     60  CA        18.1890   -3.6290  -16.8970 C.3    77  LEU77       0.1693
     61  C         17.3940   -2.4230  -17.4260 C.2    77  LEU77       0.2592
     62  O         17.8480   -1.2790  -17.3290 O.2    77  LEU77      -0.2718
     63  CB        18.7360   -4.4640  -18.0620 C.3    77  LEU77       0.0284
     64  CG        19.4990   -3.6460  -19.1010 C.3    77  LEU77       0.0019
     65  CD1       20.6930   -2.9240  -18.4490 C.3    77  LEU77       0.0001
     66  CD2       19.9720   -4.5420  -20.2180 C.3    77  LEU77       0.0001
     67  N         16.2150   -2.6960  -17.9670 N.am   78  ASN78      -0.1974
     68  CA        15.3870   -1.6480  -18.5590 C.3    78  ASN78       0.1688
     69  C         14.9440   -0.6220  -17.5170 C.2    78  ASN78       0.2292
     70  O         14.9130    0.5740  -17.8230 O.2    78  ASN78      -0.2864
     71  CB        14.1840   -2.2610  -19.3020 C.3    78  ASN78       0.1181
     72  CG        14.5880   -2.9790  -20.5940 C.2    78  ASN78       0.2629
     73  OD1       14.5200   -2.4020  -21.6920 O.2    78  ASN78      -0.2716
     74  ND2       14.9780   -4.2340  -20.4780 N.am   78  ASN78      -0.0877
     75  N         17.7520    1.7340  -16.6070 N.3    81  LEU81      -0.1231
     76  CA        18.0520    2.6650  -17.6920 C.3    81  LEU81       0.1693
     77  C         16.9040    3.6650  -17.8760 C.2    81  LEU81       0.2591
     78  O         17.1260    4.8400  -18.2030 O.2    81  LEU81      -0.2718
     79  CB        18.4280    1.9100  -18.9730 C.3    81  LEU81       0.0284
     80  CG        19.9430    1.6520  -19.1030 C.3    81  LEU81       0.0019
     81  CD1       20.6500    0.9680  -17.9120 C.3    81  LEU81       0.0001
     82  CD2       20.3210    0.9630  -20.4300 C.3    81  LEU81       0.0001
     83  N         15.6860    3.2020  -17.6030 N.am   82  LEU82      -0.1980
     84  CA        14.5290    4.0990  -17.5430 C.3    82  LEU82       0.1596
     85  C         14.7460    5.1580  -16.4660 C.2    82  LEU82       0.2287
     86  O         14.4800    6.3540  -16.6770 O.2    82  LEU82      -0.2864
     87  CB        13.2440    3.3110  -17.2700 C.3    82  LEU82       0.0297
     88  CG        11.9540    4.1380  -17.1760 C.3    82  LEU82       0.0022
     89  CD1       11.6890    4.9640  -18.4330 C.3    82  LEU82       0.0001
     90  CD2       10.7470    3.2420  -16.8100 C.3    82  LEU82       0.0001
     91  N         17.2760    7.6710  -17.7980 N.3    85  ARG85      -0.1231
     92  CA        16.6050    8.5000  -18.7970 C.3    85  ARG85       0.1694
     93  C         15.6520    9.5550  -18.1910 C.2    85  ARG85       0.2591
     94  O         15.6370   10.7260  -18.6230 O.2    85  ARG85      -0.2718
     95  CB        15.8920    7.6240  -19.8320 C.3    85  ARG85       0.0321
     96  CG        15.3150    8.4110  -21.0140 C.3    85  ARG85       0.0489
     97  CD        14.5450    7.4930  -21.9190 C.3    85  ARG85       0.2205
     98  NE        13.1910    7.2750  -21.4090 N.pl3  85  ARG85      -0.0865
     99  CZ        12.2430    6.5650  -22.0250 C.cat  85  ARG85       0.5346
    100  NH1       12.4740    5.9650  -23.1840 N.pl3  85  ARG85       0.1354
    101  NH2       11.0500    6.4600  -21.4670 N.pl3  85  ARG85       0.1354
    102  N         14.8650    9.1650  -17.1940 N.am   86  ARG86      -0.1980
    103  CA        13.9460   10.1110  -16.5590 C.3    86  ARG86       0.1597
    104  C         14.6880   11.2240  -15.8430 C.2    86  ARG86       0.2287
    105  O         14.1680   12.3360  -15.6800 O.2    86  ARG86      -0.2864
    106  CB        13.1050    9.4230  -15.5140 C.3    86  ARG86       0.0334
    107  CG        12.2890    8.3180  -16.0200 C.3    86  ARG86       0.0492
    108  CD        11.1060    8.2570  -15.1330 C.3    86  ARG86       0.2205
    109  NE        10.0200    7.6790  -15.8760 N.pl3  86  ARG86      -0.0865
    110  CZ         8.9960    7.0750  -15.3200 C.cat  86  ARG86       0.5346
    111  NH1        8.9220    6.9970  -14.0020 N.pl3  86  ARG86       0.1354
    112  NH2        8.0590    6.5560  -16.0970 N.pl3  86  ARG86       0.1354
    113  N         20.5240    7.4460  -22.5740 N.3    91  VAL91      -0.1231
    114  CA        20.9230    6.0470  -22.5620 C.3    91  VAL91       0.1692
    115  C         20.9000    5.5020  -23.9780 C.2    91  VAL91       0.2592
    116  O         20.2360    6.0550  -24.8440 O.2    91  VAL91      -0.2718
    117  CB        20.0150    5.1800  -21.6600 C.3    91  VAL91       0.0266
    118  CG1       20.2020    5.5660  -20.1650 C.3    91  VAL91       0.0020
    119  CG2       18.5490    5.2770  -22.0870 C.3    91  VAL91       0.0020
    120  N         21.6540    4.4310  -24.1930 N.am   92  PHE92      -0.1962
    121  CA        21.7400    3.7590  -25.4760 C.3    92  PHE92       0.1771
    122  C         22.1280    2.3180  -25.1860 C.2    92  PHE92       0.2619
    123  O         22.5980    2.0190  -24.0810 O.2    92  PHE92      -0.2715
    124  CB        22.7790    4.4360  -26.3720 C.3    92  PHE92       0.0574
    125  CG        24.0760    4.7260  -25.6800 C.ar   92  PHE92      -0.0200
    126  CD1       25.1100    3.8140  -25.7180 C.ar   92  PHE92      -0.0042
    127  CD2       24.2660    5.9320  -25.0050 C.ar   92  PHE92      -0.0042
    128  CE1       26.3320    4.0880  -25.0860 C.ar   92  PHE92      -0.0003
    129  CE2       25.4740    6.2000  -24.3650 C.ar   92  PHE92      -0.0003
    130  CZ        26.4990    5.2740  -24.4120 C.ar   92  PHE92      -0.0000
    131  N         21.9250    1.4300  -26.1560 N.am   93  ASP93      -0.1971
    132  CA        22.2940    0.0260  -25.9760 C.3    93  ASP93       0.1709
    133  C         23.8180   -0.1190  -26.0740 C.2    93  ASP93       0.2293
    134  O         24.4910    0.6270  -26.8030 O.2    93  ASP93      -0.2864
    135  CB        21.5650   -0.8560  -27.0050 C.3    93  ASP93       0.1436
    136  CG        21.3330   -2.2750  -26.5260 C.2    93  ASP93       0.3671
    137  OD1       21.9410   -2.6640  -25.5210 O.co2  93  ASP93      -0.2456
    138  OD2       20.5360   -3.0130  -27.1680 O.co2  93  ASP93      -0.2456
    139  N         25.8870   -4.7610  -21.6580 N.3    97  LEU97      -0.1245
    140  CA        24.7610   -4.7240  -20.7060 C.3    97  LEU97       0.1561
    141  C         24.2570   -6.0980  -20.2840 C.2    97  LEU97       0.2260
    142  O         23.8970   -6.2900  -19.1250 O.2    97  LEU97      -0.2867
    143  CB        23.5940   -3.8660  -21.2490 C.3    97  LEU97       0.0270
    144  CG        23.8330   -2.3610  -21.4770 C.3    97  LEU97       0.0019
    145  CD1       22.5960   -1.6470  -22.0580 C.3    97  LEU97       0.0001
    146  CD2       24.2690   -1.6470  -20.2100 C.3    97  LEU97       0.0001
@<TRIPOS>BOND
     1    46    44    1
     2    44    43    2
     3    44    45    1
     4    43    42    1
     5    39    38    2
     6    42    41    1
     7    41    40    1
     8    55    53   ar
     9    55    57   ar
    10    58    57    1
    11    53    52   ar
    12   138   136   ar
    13    38    37    1
    14    38    47   am
    15   135   136    1
    16   135   132    1
    17    57    56   ar
    18   134   133    2
    19    37    40    1
    20    37    36    1
    21   136   137   ar
    22   124   125    1
    23   124   121    1
    24    48    47    1
    25    48    49    1
    26    48    51    1
    27    50    49    2
    28   131   132    1
    29   131   122   am
    30   133   132    1
    31    52    51    1
    32    52    54   ar
    33    56    54   ar
    34   126   125   ar
    35   126   128   ar
    36   125   127   ar
    37   121   122    1
    38   121   120    1
    39   122   123    2
    40   128   130   ar
    41   127   129   ar
    42   116   115    2
    43   130   129   ar
    44   120   115   am
    45   115   114    1
    46    26    25    2
    47    31    30    2
    48   100    99    1
    49   113   114    1
    50   114   117    1
    51    30    29    1
    52    25    24    1
    53    25    28   am
    54   119   117    1
    55   145   144    1
    56    99   101    1
    57    99    98    2
    58    97    98    1
    59    97    96    1
    60    29    28    1
    61    29    32    1
    62    35    33   am
    63    73    72    2
    64   117   118    1
    65   139   140    1
    66    27    24    1
    67    34    33    2
    68    24    23    1
    69   144   143    1
    70   144   146    1
    71    33    32    1
    72   143   140    1
    73    96    95    1
    74   140   141    1
    75    72    74   am
    76    72    71    1
    77    82    80    1
    78   141   142    2
    79    66    64    1
    80    95    92    1
    81    71    68    1
    82    80    79    1
    83    80    81    1
    84    64    65    1
    85    64    63    1
    86    79    76    1
    87    18    17    2
    88    92    93    1
    89    92    91    1
    90    94    93    2
    91    68    67    1
    92    68    69    1
    93    89    88    1
    94    78    77    2
    95    93   102   am
    96    13    12    2
    97    63    60    1
    98    67    61   am
    99    77    76    1
   100    77    83   am
   101    70    69    2
   102    17    16    1
   103    22    20    1
   104    20    21    1
   105    20    19    1
   106    76    75    1
   107    83    84    1
   108    84    87    1
   109    84    85    1
   110    16    19    1
   111    16    15    1
   112    61    62    2
   113    61    60    1
   114    87    88    1
   115   102   103    1
   116    88    90    1
   117    12    15   am
   118    12    11    1
   119    60    59    1
   120    86    85    2
   121   103   104    1
   122   103   106    1
   123   112   110    1
   124    14    11    1
   125   107   106    1
   126   107   108    1
   127    11    10    1
   128   109   110    2
   129   109   108    1
   130   104   105    2
   131   110   111    1
   132     9     7   ar
   133     4     3    2
   134     7     6    1
   135     7     8   ar
   136     6     5    1
   137     3     2    1
   138     2     5    1
   139     2     1    1
