@<TRIPOS>MOLECULE
tmp/3dd8A00.pdb
 172 168 0 0 0
SMALL
GASTEIGER

@<TRIPOS>ATOM
      1  N          8.3040   -0.3110   10.2520 N.3     2  TRP2       -0.1241
      2  CA         7.6230   -1.2770   11.1130 C.3     2  TRP2        0.1605
      3  C          6.6370   -2.1540   10.3520 C.2     2  TRP2        0.2264
      4  O          6.0350   -1.7230    9.3570 O.2     2  TRP2       -0.2867
      5  CB         6.9520   -0.5860   12.3170 C.3     2  TRP2        0.0550
      6  CG         5.6940    0.1440   11.9840 C.ar    2  TRP2        0.0003
      7  CD1        5.5750    1.4550   11.6230 C.ar    2  TRP2        0.0946
      8  CD2        4.3700   -0.3960   11.9800 C.ar    2  TRP2        0.0152
      9  NE1        4.2620    1.7620   11.3810 N.ar    2  TRP2       -0.2442
     10  CE2        3.4990    0.6420   11.5960 C.ar    2  TRP2        0.0810
     11  CE3        3.8360   -1.6650   12.2490 C.ar    2  TRP2        0.0012
     12  CZ2        2.1170    0.4590   11.4890 C.ar    2  TRP2        0.0191
     13  CZ3        2.4670   -1.8480   12.1340 C.ar    2  TRP2        0.0001
     14  CH2        1.6210   -0.7890   11.7630 C.ar    2  TRP2        0.0015
     15  N         -3.3020    0.3070    3.6580 N.3    59  ASN59      -0.1240
     16  CA        -2.1890    1.1190    4.1680 C.3    59  ASN59       0.1653
     17  C         -0.9090    0.3200    4.4350 C.2    59  ASN59       0.2266
     18  O          0.0160    0.8270    5.0620 O.2    59  ASN59      -0.2867
     19  CB        -2.6140    1.9250    5.4080 C.3    59  ASN59       0.1155
     20  CG        -2.8280    1.0560    6.6400 C.2    59  ASN59       0.2627
     21  OD1       -2.6300   -0.1610    6.6120 O.2    59  ASN59      -0.2716
     22  ND2       -3.2130    1.6860    7.7380 N.am   59  ASN59      -0.0877
     23  N         -0.6330   -2.3070    6.3030 N.3    61  HIS61      -0.1241
     24  CA        -0.7560   -2.9840    7.6090 C.3    61  HIS61       0.1621
     25  C         -2.1310   -3.6320    7.7620 C.2    61  HIS61       0.2264
     26  O         -2.2610   -4.7750    8.2250 O.2    61  HIS61      -0.2867
     27  CB        -0.5160   -1.9770    8.7500 C.3    61  HIS61       0.0745
     28  CG         0.6580   -1.0900    8.5040 C.ar   61  HIS61       0.0817
     29  ND1        1.9480   -1.5710    8.4570 N.ar   61  HIS61      -0.2268
     30  CD2        0.7390    0.2350    8.2460 C.ar   61  HIS61       0.1154
     31  CE1        2.7750   -0.5760    8.1920 C.ar   61  HIS61       0.1986
     32  NE2        2.0670    0.5290    8.0540 N.ar   61  HIS61      -0.2212
     33  N        -12.6270    6.3630   11.2440 N.3    89  GLN89      -0.1245
     34  CA       -12.3660    5.1850   10.4150 C.3    89  GLN89       0.1566
     35  C        -12.6160    3.8870   11.1690 C.2    89  GLN89       0.2260
     36  O        -12.7500    3.9020   12.3810 O.2    89  GLN89      -0.2867
     37  CB       -10.9200    5.1990    9.9030 C.3    89  GLN89       0.0367
     38  CG        -9.8520    5.2690   10.9990 C.3    89  GLN89       0.0905
     39  CD        -9.0560    3.9740   11.1650 C.2    89  GLN89       0.2608
     40  OE1       -9.6130    2.8970   11.3680 O.2    89  GLN89      -0.2717
     41  NE2       -7.7400    4.0910   11.0980 N.am   89  GLN89      -0.0878
     42  N        -11.0970   -0.4770   10.9410 N.3    91  HIS91      -0.1241
     43  CA       -10.1680   -1.4330   10.3590 C.3    91  HIS91       0.1621
     44  C        -10.2470   -2.6810   11.2200 C.2    91  HIS91       0.2264
     45  O        -10.8310   -2.6540   12.3020 O.2    91  HIS91      -0.2867
     46  CB        -8.7430   -0.8970   10.4170 C.3    91  HIS91       0.0745
     47  CG        -8.2700   -0.6360   11.8050 C.ar   91  HIS91       0.0817
     48  ND1       -8.4290    0.5830   12.4220 N.ar   91  HIS91      -0.2268
     49  CD2       -7.6750   -1.4460   12.7130 C.ar   91  HIS91       0.1154
     50  CE1       -7.9330    0.5200   13.6440 C.ar   91  HIS91       0.1986
     51  NE2       -7.4680   -0.6990   13.8440 N.ar   91  HIS91      -0.2212
     52  N         -8.0630   -6.4250   12.5940 N.3    93  HIS93      -0.1241
     53  CA        -6.8460   -7.2170   12.7370 C.3    93  HIS93       0.1621
     54  C         -7.2830   -8.6650   12.6150 C.2    93  HIS93       0.2264
     55  O         -8.3230   -9.0390   13.1590 O.2    93  HIS93      -0.2867
     56  CB        -6.2020   -6.9600   14.0970 C.3    93  HIS93       0.0745
     57  CG        -5.9460   -5.5110   14.3620 C.ar   93  HIS93       0.0817
     58  ND1       -4.7050   -4.9310   14.2000 N.ar   93  HIS93      -0.2268
     59  CD2       -6.7830   -4.5150   14.7310 C.ar   93  HIS93       0.1154
     60  CE1       -4.7900   -3.6420   14.4730 C.ar   93  HIS93       0.1986
     61  NE2       -6.0390   -3.3630   14.7950 N.ar   93  HIS93      -0.2212
     62  N        -12.0030   -2.6660   14.8320 N.3   116  HIS116     -0.1241
     63  CA       -11.7620   -1.4470   15.5890 C.3   116  HIS116      0.1621
     64  C        -12.4140   -0.2300   14.9420 C.2   116  HIS116      0.2264
     65  O        -12.0860    0.1270   13.8180 O.2   116  HIS116     -0.2867
     66  CB       -10.2540   -1.2010   15.7680 C.3   116  HIS116      0.0745
     67  CG        -9.5820   -2.1920   16.6730 C.ar  116  HIS116      0.0817
     68  ND1       -8.2230   -2.4290   16.6460 N.ar  116  HIS116     -0.2268
     69  CD2      -10.0880   -3.0090   17.6300 C.ar  116  HIS116      0.1154
     70  CE1       -7.9210   -3.3500   17.5450 C.ar  116  HIS116      0.1986
     71  NE2       -9.0350   -3.7130   18.1600 N.ar  116  HIS116     -0.2212
     72  N        -12.6740    3.6330   15.2940 N.3   118  VAL118     -0.1245
     73  CA       -11.8260    4.6480   15.9240 C.3   118  VAL118      0.1561
     74  C        -12.5300    5.9990   15.9680 C.2   118  VAL118      0.2260
     75  O        -13.0900    6.4430   14.9620 O.2   118  VAL118     -0.2867
     76  CB       -10.4470    4.7470   15.2250 C.3   118  VAL118      0.0252
     77  CG1       -9.5190    5.7100   15.9760 C.3   118  VAL118      0.0019
     78  CG2       -9.8150    3.3790   15.1300 C.3   118  VAL118      0.0019
     79  N         -8.1620   15.2640   14.8280 N.3   127  PHE127     -0.1227
     80  CA        -7.5900   13.9690   15.2170 C.3   127  PHE127      0.1736
     81  C         -6.1340   14.0820   15.6730 C.2   127  PHE127      0.2596
     82  O         -5.7320   13.4470   16.6510 O.2   127  PHE127     -0.2718
     83  CB        -7.7060   12.9760   14.0530 C.3   127  PHE127      0.0547
     84  CG        -7.1890   11.6040   14.3660 C.ar  127  PHE127     -0.0202
     85  CD1       -5.8900   11.2370   14.0210 C.ar  127  PHE127     -0.0042
     86  CD2       -8.0080   10.6650   14.9850 C.ar  127  PHE127     -0.0042
     87  CE1       -5.4060    9.9630   14.3090 C.ar  127  PHE127     -0.0003
     88  CE2       -7.5360    9.3870   15.2740 C.ar  127  PHE127     -0.0003
     89  CZ        -6.2400    9.0340   14.9390 C.ar  127  PHE127     -0.0000
     90  N         -5.3560   14.8900   14.9530 N.am  128  GLY128     -0.1957
     91  CA        -3.9370   15.0830   15.2500 C.3   128  GLY128      0.1869
     92  C         -3.6680   15.7130   16.6020 C.2   128  GLY128      0.2309
     93  O         -2.6810   15.3970   17.2370 O.2   128  GLY128     -0.2863
     94  N         -4.7470   12.8650   19.4850 N.3   131  VAL131     -0.1245
     95  CA        -3.7770   11.7990   19.7710 C.3   131  VAL131      0.1561
     96  C         -2.6650   12.2250   20.7320 C.2   131  VAL131      0.2260
     97  O         -1.8730   11.3970   21.1640 O.2   131  VAL131     -0.2867
     98  CB        -3.1970   11.1190   18.4850 C.3   131  VAL131      0.0252
     99  CG1       -4.3180   10.5100   17.6660 C.3   131  VAL131      0.0019
    100  CG2       -2.3910   12.0870   17.6360 C.3   131  VAL131      0.0019
    101  N        -11.7500    3.8430   21.1240 N.3   139  VAL139     -0.1245
    102  CA       -11.8560    2.7820   20.1230 C.3   139  VAL139      0.1561
    103  C        -12.8330    1.7390   20.6340 C.2   139  VAL139      0.2260
    104  O        -12.6680    1.1950   21.7290 O.2   139  VAL139     -0.2867
    105  CB       -10.4830    2.1680   19.7410 C.3   139  VAL139      0.0252
    106  CG1      -10.6140    1.2160   18.5390 C.3   139  VAL139      0.0019
    107  CG2       -9.4870    3.2620   19.4140 C.3   139  VAL139      0.0019
    108  N         -2.9850    3.2680   21.2280 N.3   194  LEU194     -0.1231
    109  CA        -2.9590    2.7340   19.8640 C.3   194  LEU194      0.1693
    110  C         -2.2040    1.4020   19.8410 C.2   194  LEU194      0.2593
    111  O         -1.2040    1.2320   20.5490 O.2   194  LEU194     -0.2718
    112  CB        -2.2720    3.7190   18.9240 C.3   194  LEU194      0.0284
    113  CG        -2.9780    5.0600   18.6790 C.3   194  LEU194      0.0019
    114  CD1       -2.1490    5.9410   17.7480 C.3   194  LEU194      0.0001
    115  CD2       -4.3760    4.8160   18.1140 C.3   194  LEU194      0.0001
    116  N         -2.6660    0.4500   19.0390 N.am  195  THR195     -0.1939
    117  CA        -1.9910   -0.8560   19.0300 C.3   195  THR195      0.2028
    118  C         -0.9520   -1.0190   17.9280 C.2   195  THR195      0.2643
    119  O         -0.3230   -2.0830   17.8290 O.2   195  THR195     -0.2714
    120  CB        -2.9730   -2.0300   18.9750 C.3   195  THR195      0.1808
    121  OG1       -3.6230   -2.0200   17.7030 O.3   195  THR195     -0.2208
    122  CG2       -4.0120   -1.9500   20.1140 C.3   195  THR195      0.0379
    123  N         -0.7770    0.0130   17.0990 N.am  196  THR196     -0.1937
    124  CA         0.3490    0.0530   16.1480 C.3   196  THR196      0.2013
    125  C          1.2450    1.2490   16.4600 C.2   196  THR196      0.2484
    126  O          0.7970    2.2040   17.1050 O.2   196  THR196     -0.2729
    127  CB        -0.1150    0.1470   14.6780 C.3   196  THR196      0.1807
    128  OG1       -0.5710    1.4760   14.4010 O.3   196  THR196     -0.2208
    129  CG2       -1.2360   -0.8530   14.3730 C.3   196  THR196      0.0379
    130  N          2.5210    1.2090   16.0210 N.am  197  PRO197     -0.2715
    131  CA         3.2750    2.4580   16.1060 C.3   197  PRO197      0.1521
    132  C          2.4440    3.5980   15.5210 C.2   197  PRO197      0.2440
    133  O          1.7360    3.3830   14.5260 O.2   197  PRO197     -0.2731
    134  CB         4.4960    2.1720   15.2360 C.3   197  PRO197      0.0310
    135  CG         4.7370    0.7180   15.4540 C.3   197  PRO197      0.0237
    136  CD         3.3480    0.1120   15.4800 C.3   197  PRO197      0.0939
    137  N          2.5070    4.8020   16.1270 N.am  198  PRO198     -0.2727
    138  CA         3.3400    5.2940   17.2430 C.3   198  PRO198      0.1402
    139  C          2.9380    4.8930   18.6810 C.2   198  PRO198      0.2269
    140  O          3.5630    5.3600   19.6390 O.2   198  PRO198     -0.2865
    141  CB         3.2470    6.8200   17.0760 C.3   198  PRO198      0.0296
    142  CG         1.9310    7.0350   16.4960 C.3   198  PRO198      0.0237
    143  CD         1.6480    5.8730   15.5960 C.3   198  PRO198      0.0939
    144  N          0.6230    5.5780   20.7870 N.3   200  LEU200     -0.1245
    145  CA         0.3140    6.6810   21.6960 C.3   200  LEU200      0.1561
    146  C         -0.7510    6.3020   22.7110 C.2   200  LEU200      0.2260
    147  O         -1.7320    5.6430   22.3820 O.2   200  LEU200     -0.2867
    148  CB        -0.1230    7.9140   20.9000 C.3   200  LEU200      0.0270
    149  CG         0.9220    8.4320   19.9070 C.3   200  LEU200      0.0019
    150  CD1        0.3110    9.4530   18.9380 C.3   200  LEU200      0.0001
    151  CD2        2.0980    9.0300   20.6690 C.3   200  LEU200      0.0001
    152  N         -5.9670    6.3590   24.2700 N.3   203  VAL203     -0.1245
    153  CA        -7.2330    5.6720   23.9730 C.3   203  VAL203      0.1561
    154  C         -7.9710    5.1650   25.2000 C.2   203  VAL203      0.2260
    155  O         -7.3990    4.4930   26.0540 O.2   203  VAL203     -0.2867
    156  CB        -7.0470    4.4820   22.9960 C.3   203  VAL203      0.0252
    157  CG1       -8.4160    3.8340   22.6540 C.3   203  VAL203      0.0019
    158  CG2       -6.3100    4.9170   21.7190 C.3   203  VAL203      0.0019
    159  N        -10.4310    2.3750   25.7480 N.3   205  TRP205     -0.1241
    160  CA       -10.8790    1.1930   25.0260 C.3   205  TRP205      0.1605
    161  C        -12.2300    0.7510   25.5280 C.2   205  TRP205      0.2264
    162  O        -12.5060    0.8010   26.7210 O.2   205  TRP205     -0.2867
    163  CB        -9.8630    0.0530   25.1350 C.3   205  TRP205      0.0550
    164  CG        -8.7910    0.1810   24.1200 C.ar  205  TRP205      0.0003
    165  CD1       -7.5840    0.7930   24.2800 C.ar  205  TRP205      0.0946
    166  CD2       -8.8330   -0.2860   22.7660 C.ar  205  TRP205      0.0152
    167  NE1       -6.8670    0.7350   23.1110 N.ar  205  TRP205     -0.2442
    168  CE2       -7.6060    0.0740   22.1650 C.ar  205  TRP205      0.0810
    169  CE3       -9.7960   -0.9690   21.9980 C.ar  205  TRP205      0.0012
    170  CZ2       -7.2990   -0.2460   20.8460 C.ar  205  TRP205      0.0191
    171  CZ3       -9.4960   -1.2870   20.6900 C.ar  205  TRP205      0.0001
    172  CH2       -8.2580   -0.9180   20.1180 C.ar  205  TRP205      0.0015
@<TRIPOS>BOND
     1    15    16    1
     2    16    17    1
     3    16    19    1
     4    17    18    2
     5    19    20    1
     6    23    24    1
     7    21    20    2
     8    20    22   am
     9    24    25    1
    10    24    27    1
    11    25    26    2
    12    32    31   ar
    13    32    30   ar
    14    31    29   ar
    15    30    28   ar
    16    29    28   ar
    17    28    27    1
    18     4     3    2
    19    37    34    1
    20    37    38    1
    21     1     2    1
    22     3     2    1
    23    43    46    1
    24    43    42    1
    25    43    44    1
    26    34    35    1
    27    34    33    1
    28    46    47    1
    29    38    39    1
    30    41    39   am
    31     2     5    1
    32    39    40    2
    33    35    36    2
    34    44    45    2
    35     9    10   ar
    36     9     7   ar
    37    12    10   ar
    38    12    14   ar
    39    10     8   ar
    40     7     6   ar
    41    14    13   ar
    42    47    48   ar
    43    47    49   ar
    44     8     6   ar
    45     8    11   ar
    46     6     5    1
    47    13    11   ar
    48    48    50   ar
    49    52    53    1
    50    54    53    1
    51    54    55    2
    52    49    51   ar
    53    53    56    1
    54    50    51   ar
    55    65    64    2
    56    85    87   ar
    57    85    84   ar
    58    83    84    1
    59    83    80    1
    60    56    57    1
    61    58    57   ar
    62    58    60   ar
    63    87    89   ar
    64    57    59   ar
    65    84    86   ar
    66   129   127    1
    67   128   127    1
    68    60    61   ar
    69   133   132    2
    70   127   124    1
    71    59    61   ar
    72    79    80    1
    73    62    63    1
    74    89    88   ar
    75    64    63    1
    76    90    91    1
    77    90    81   am
    78    75    74    2
    79    86    88   ar
    80    78    76    1
    81    80    81    1
    82    76    73    1
    83    76    77    1
    84   134   135    1
    85   134   131    1
    86    91    92    1
    87    72    73    1
    88   135   136    1
    89   136   130    1
    90   132   131    1
    91   132   137   am
    92    63    66    1
    93   143   137    1
    94   143   142    1
    95    81    82    2
    96    66    67    1
    97    73    74    1
    98   130   131    1
    99   130   125   am
   100   137   138    1
   101   124   125    1
   102   124   123    1
   103   125   126    2
   104   142   141    1
   105    92    93    2
   106    68    67   ar
   107    68    70   ar
   108    67    69   ar
   109   141   138    1
   110   123   118   am
   111   138   139    1
   112    70    71   ar
   113    69    71   ar
   114   100    98    1
   115    99    98    1
   116   121   120    1
   117   114   113    1
   118   119   118    2
   119   118   117    1
   120   115   113    1
   121    98    95    1
   122   106   105    1
   123   113   112    1
   124   139   140    2
   125   112   109    1
   126   150   149    1
   127   120   117    1
   128   120   122    1
   129   117   116    1
   130   116   110   am
   131   107   105    1
   132    94    95    1
   133   105   102    1
   134    95    96    1
   135   110   109    1
   136   110   111    2
   137   109   108    1
   138   149   151    1
   139   149   148    1
   140   172   171   ar
   141   172   170   ar
   142   102   103    1
   143   102   101    1
   144   103   104    2
   145   171   169   ar
   146    96    97    2
   147   144   145    1
   148   170   168   ar
   149   148   145    1
   150   145   146    1
   151   158   156    1
   152   169   166   ar
   153   168   166   ar
   154   168   167   ar
   155   147   146    2
   156   157   156    1
   157   166   164   ar
   158   156   153    1
   159   167   165   ar
   160   153   152    1
   161   153   154    1
   162   164   165   ar
   163   164   163    1
   164   160   163    1
   165   160   161    1
   166   160   159    1
   167   154   155    2
   168   161   162    2
