@<TRIPOS>MOLECULE
tmp/3ddaA00.pdb
 231 225 0 0 0
SMALL
GASTEIGER

@<TRIPOS>ATOM
      1  N         29.2650    9.4790   51.6600 N.3    68  VAL68      -0.1231
      2  CA        29.1150   10.0150   53.0150 C.3    68  VAL68       0.1678
      3  C         27.6680    9.9290   53.4830 C.2    68  VAL68       0.2434
      4  O         26.7980    9.4740   52.7470 O.2    68  VAL68      -0.2733
      5  CB        29.5720   11.4820   53.0890 C.3    68  VAL68       0.0265
      6  CG1       30.5770   11.7690   51.9820 C.3    68  VAL68       0.0020
      7  CG2       28.3630   12.4050   53.0400 C.3    68  VAL68       0.0020
      8  N         27.3850   10.3830   54.7070 N.am   69  PRO69      -0.2718
      9  CA        26.0110   10.3140   55.1950 C.3    69  PRO69       0.1535
     10  C         25.0620   11.2800   54.4870 C.2    69  PRO69       0.2598
     11  O         24.1370   10.8420   53.8050 O.2    69  PRO69      -0.2715
     12  CB        26.1620   10.5710   56.6990 C.3    69  PRO69       0.0310
     13  CG        27.3950   11.4470   56.7670 C.3    69  PRO69       0.0237
     14  CD        28.3100   10.7700   55.7790 C.3    69  PRO69       0.0939
     15  N         25.2990   12.5840   54.6020 N.am   70  VAL70      -0.1978
     16  CA        24.4310   13.5630   53.9510 C.3    70  VAL70       0.1596
     17  C         24.9880   14.0300   52.6060 C.2    70  VAL70       0.2287
     18  O         25.8470   14.9100   52.5380 O.2    70  VAL70      -0.2864
     19  CB        24.2000   14.7980   54.8460 C.3    70  VAL70       0.0276
     20  CG1       23.2480   15.7690   54.1580 C.3    70  VAL70       0.0022
     21  CG2       23.6260   14.3580   56.1850 C.3    70  VAL70       0.0022
     22  N         27.6430   16.5400   44.0910 N.3   159  ASP159     -0.1239
     23  CA        26.7440   16.3680   45.2290 C.3   159  ASP159      0.1674
     24  C         25.6430   17.4120   45.0610 C.2   159  ASP159      0.2266
     25  O         25.8470   18.6010   45.3140 O.2   159  ASP159     -0.2867
     26  CB        27.4850   16.5960   46.5460 C.3   159  ASP159      0.1410
     27  CG        26.6310   16.2760   47.7550 C.2   159  ASP159      0.3668
     28  OD1       25.4250   15.9910   47.5790 O.co2 159  ASP159     -0.2456
     29  OD2       27.1650   16.3170   48.8850 O.co2 159  ASP159     -0.2456
     30  N         22.9850   18.1790   46.7660 N.3   161  ILE161     -0.1231
     31  CA        22.5110   18.9440   47.9110 C.3   161  ILE161      0.1692
     32  C         23.5310   19.8360   48.6120 C.2   161  ILE161      0.2592
     33  O         23.2310   20.4380   49.6440 O.2   161  ILE161     -0.2718
     34  CB        21.8350   18.0160   48.9390 C.3   161  ILE161      0.0266
     35  CG1       22.8520   17.0420   49.5350 C.3   161  ILE161      0.0019
     36  CG2       20.7040   17.2480   48.2560 C.3   161  ILE161      0.0020
     37  CD1       22.2610   16.1040   50.5730 C.3   161  ILE161      0.0001
     38  N         24.7300   19.9310   48.0490 N.am  162  GLN162     -0.1966
     39  CA        25.7640   20.7850   48.6180 C.3   162  GLN162      0.1733
     40  C         25.6520   22.1790   48.0140 C.2   162  GLN162      0.2616
     41  O         26.4120   22.5360   47.1140 O.2   162  GLN162     -0.2715
     42  CB        27.1590   20.2140   48.3380 C.3   162  GLN162      0.0408
     43  CG        27.6350   19.1980   49.3650 C.3   162  GLN162      0.0908
     44  CD        27.9390   19.8250   50.7190 C.2   162  GLN162      0.2608
     45  OE1       28.2240   19.1210   51.6900 O.2   162  GLN162     -0.2717
     46  NE2       27.8900   21.1520   50.7860 N.am  162  GLN162     -0.0878
     47  N         24.6830   22.9540   48.4970 N.am  163  PHE163     -0.1960
     48  CA        24.4850   24.3180   48.0170 C.3   163  PHE163      0.1771
     49  C         25.4900   25.2030   48.7330 C.2   163  PHE163      0.2619
     50  O         25.7500   25.0140   49.9210 O.2   163  PHE163     -0.2715
     51  CB        23.0830   24.8410   48.3570 C.3   163  PHE163      0.0574
     52  CG        21.9550   24.0170   47.8050 C.ar  163  PHE163     -0.0200
     53  CD1       22.1590   23.0980   46.7820 C.ar  163  PHE163     -0.0042
     54  CD2       20.6600   24.2030   48.2870 C.ar  163  PHE163     -0.0042
     55  CE1       21.0930   22.3790   46.2460 C.ar  163  PHE163     -0.0003
     56  CE2       19.5870   23.4880   47.7550 C.ar  163  PHE163     -0.0003
     57  CZ        19.8050   22.5740   46.7320 C.ar  163  PHE163     -0.0000
     58  N         26.0440   26.1760   48.0190 N.am  164  GLU164     -0.1963
     59  CA        27.0110   27.0870   48.6170 C.3   164  GLU164      0.1733
     60  C         27.5010   28.1310   47.6320 C.2   164  GLU164      0.2616
     61  O         27.3130   28.0000   46.4200 O.2   164  GLU164     -0.2715
     62  CB        28.2160   26.3170   49.1650 C.3   164  GLU164      0.0429
     63  CG        28.9110   25.4340   48.1500 C.3   164  GLU164      0.1163
     64  CD        30.2100   24.8510   48.6810 C.2   164  GLU164      0.3649
     65  OE1       30.7370   23.9090   48.0570 O.co2 164  GLU164     -0.2457
     66  OE2       30.7090   25.3400   49.7160 O.co2 164  GLU164     -0.2457
     67  N         28.1270   29.1690   48.1730 N.am  165  CYS165     -0.1968
     68  CA        28.6840   30.2500   47.3770 C.3   165  CYS165      0.1712
     69  C         30.1180   29.9400   46.9870 C.2   165  CYS165      0.2296
     70  O         30.9440   29.5930   47.8340 O.2   165  CYS165     -0.2864
     71  CB        28.6750   31.5590   48.1630 C.3   165  CYS165      0.0983
     72  SG        27.0520   32.2830   48.3880 S.3   165  CYS165     -0.0798
     73  N         14.7020   19.9020   51.6650 N.3   194  PHE194     -0.1241
     74  CA        15.0920   19.0430   52.7660 C.3   194  PHE194      0.1605
     75  C         14.0990   18.9910   53.8950 C.2   194  PHE194      0.2264
     76  O         13.4170   19.9650   54.1770 O.2   194  PHE194     -0.2867
     77  CB        16.4480   19.5470   53.2400 C.3   194  PHE194      0.0534
     78  CG        17.4030   19.7640   52.1080 C.ar  194  PHE194     -0.0203
     79  CD1       18.1720   18.7100   51.6260 C.ar  194  PHE194     -0.0042
     80  CD2       17.4180   20.9750   51.4180 C.ar  194  PHE194     -0.0042
     81  CE1       18.9380   18.8550   50.4800 C.ar  194  PHE194     -0.0003
     82  CE2       18.1810   21.1290   50.2640 C.ar  194  PHE194     -0.0003
     83  CZ        18.9400   20.0640   49.7910 C.ar  194  PHE194     -0.0000
     84  N         16.0730   28.6040   51.8070 N.3   220  THR220     -0.1218
     85  CA        17.3730   28.0470   51.4510 C.3   220  THR220      0.1862
     86  C         18.1310   28.9780   50.5020 C.2   220  THR220      0.2287
     87  O         19.3350   29.2090   50.6720 O.2   220  THR220     -0.2866
     88  CB        17.1920   26.6690   50.8100 C.3   220  THR220      0.1770
     89  OG1       16.4470   25.8410   51.7120 O.3   220  THR220     -0.2211
     90  CG2       18.5430   26.0200   50.5220 C.3   220  THR220      0.0375
     91  N         19.2980   32.0740   52.3470 N.3   223  HIS223     -0.1226
     92  CA        20.4770   31.7700   53.1540 C.3   223  HIS223      0.1752
     93  C         21.7330   31.9920   52.3120 C.2   223  HIS223      0.2595
     94  O         22.6720   32.6590   52.7490 O.2   223  HIS223     -0.2718
     95  CB        20.4010   30.3160   53.6370 C.3   223  HIS223      0.0759
     96  CG        21.6140   29.8500   54.3850 C.ar  223  HIS223      0.0818
     97  ND1       21.6260   29.6830   55.7530 N.ar  223  HIS223     -0.2268
     98  CD2       22.8420   29.4800   53.9490 C.ar  223  HIS223      0.1154
     99  CE1       22.8090   29.2270   56.1280 C.ar  223  HIS223      0.1986
    100  NE2       23.5650   29.0960   55.0540 N.ar  223  HIS223     -0.2212
    101  N         21.7550   31.4370   51.1020 N.am  224  GLU224     -0.1979
    102  CA        22.9200   31.6200   50.2450 C.3   224  GLU224      0.1602
    103  C         23.0740   33.0730   49.8010 C.2   224  GLU224      0.2287
    104  O         24.1930   33.5650   49.6720 O.2   224  GLU224     -0.2864
    105  CB        22.8540   30.7040   49.0210 C.3   224  GLU224      0.0415
    106  CG        22.9280   29.2120   49.3520 C.3   224  GLU224      0.1163
    107  CD        24.0930   28.8570   50.2680 C.2   224  GLU224      0.3649
    108  OE1       25.1840   29.4550   50.1170 O.co2 224  GLU224     -0.2457
    109  OE2       23.9240   27.9650   51.1310 O.co2 224  GLU224     -0.2457
    110  N         24.9340   34.8800   52.4250 N.3   227  HIS227     -0.1241
    111  CA        26.3730   34.6380   52.3360 C.3   227  HIS227      0.1621
    112  C         26.9390   35.4840   51.2040 C.2   227  HIS227      0.2264
    113  O         27.9910   36.1030   51.3450 O.2   227  HIS227     -0.2867
    114  CB        26.6830   33.1730   52.0130 C.3   227  HIS227      0.0745
    115  CG        26.5510   32.2390   53.1730 C.ar  227  HIS227      0.0817
    116  ND1       27.1920   32.4420   54.3770 N.ar  227  HIS227     -0.2268
    117  CD2       25.9250   31.0430   53.2760 C.ar  227  HIS227      0.1154
    118  CE1       26.9690   31.4080   55.1700 C.ar  227  HIS227      0.1986
    119  NE2       26.2050   30.5450   54.5250 N.ar  227  HIS227     -0.2212
    120  N         27.0920   16.4630   68.2800 N.3   251  TYR251     -0.1241
    121  CA        28.0650   17.2510   67.5350 C.3   251  TYR251      0.1605
    122  C         29.4220   17.0050   68.1800 C.2   251  TYR251      0.2264
    123  O         30.4260   16.8270   67.4940 O.2   251  TYR251     -0.2867
    124  CB        27.7340   18.7430   67.6160 C.3   251  TYR251      0.0534
    125  CG        26.9050   19.2440   66.4590 C.ar  251  TYR251     -0.0201
    126  CD1       25.6590   18.6880   66.1760 C.ar  251  TYR251     -0.0009
    127  CD2       27.3770   20.2600   65.6330 C.ar  251  TYR251     -0.0009
    128  CE1       24.9030   19.1290   65.0940 C.ar  251  TYR251      0.0417
    129  CE2       26.6320   20.7080   64.5480 C.ar  251  TYR251      0.0417
    130  CZ        25.3970   20.1380   64.2840 C.ar  251  TYR251      0.1957
    131  OH        24.6680   20.5690   63.2010 O.3   251  TYR251     -0.2866
    132  N         31.3030   13.8280   67.5190 N.3   254  SER254     -0.1217
    133  CA        31.7880   13.8270   66.1430 C.3   254  SER254      0.1889
    134  C         32.7830   14.9670   65.9290 C.2   254  SER254      0.2288
    135  O         33.3580   15.1060   64.8480 O.2   254  SER254     -0.2866
    136  CB        30.6190   13.9750   65.1630 C.3   254  SER254      0.2089
    137  OG        29.7230   12.8820   65.2660 O.3   254  SER254     -0.2183
    138  N         32.2460   18.0390   65.5380 N.3   256  LEU256     -0.1231
    139  CA        31.7730   18.9620   64.5160 C.3   256  LEU256      0.1693
    140  C         32.0530   20.4230   64.8520 C.2   256  LEU256      0.2592
    141  O         31.6920   20.9070   65.9270 O.2   256  LEU256     -0.2718
    142  CB        30.2710   18.7650   64.2910 C.3   256  LEU256      0.0284
    143  CG        29.8640   17.3740   63.8000 C.3   256  LEU256      0.0019
    144  CD1       28.3510   17.3000   63.6440 C.3   256  LEU256      0.0001
    145  CD2       30.5510   17.0770   62.4760 C.3   256  LEU256      0.0001
    146  N         32.7030   21.1180   63.9230 N.am  257  GLU257     -0.1966
    147  CA        33.0270   22.5280   64.0970 C.3   257  GLU257      0.1733
    148  C         32.2530   23.3280   63.0540 C.2   257  GLU257      0.2616
    149  O         32.3410   23.0440   61.8580 O.2   257  GLU257     -0.2715
    150  CB        34.5330   22.7550   63.9250 C.3   257  GLU257      0.0429
    151  CG        35.3890   21.7730   64.7170 C.3   257  GLU257      0.1163
    152  CD        36.8660   22.1160   64.6950 C.2   257  GLU257      0.3649
    153  OE1       37.3250   22.7370   63.7130 O.co2 257  GLU257     -0.2457
    154  OE2       37.5740   21.7500   65.6580 O.co2 257  GLU257     -0.2457
    155  N         31.4900   24.3160   63.5130 N.am  258  VAL258     -0.1977
    156  CA        30.6850   25.1500   62.6220 C.3   258  VAL258      0.1596
    157  C         31.2740   26.5560   62.5240 C.2   258  VAL258      0.2287
    158  O         31.5240   27.2020   63.5360 O.2   258  VAL258     -0.2864
    159  CB        29.2300   25.2410   63.1250 C.3   258  VAL258      0.0276
    160  CG1       28.4090   26.1360   62.2000 C.3   258  VAL258      0.0022
    161  CG2       28.6210   23.8470   63.1870 C.3   258  VAL258      0.0022
    162  N         28.5940   30.8010   59.2420 N.3   262  GLU262     -0.1245
    163  CA        27.3070   30.1090   59.1670 C.3   262  GLU262      0.1567
    164  C         26.3910   30.5270   60.3130 C.2   262  GLU262      0.2260
    165  O         25.1960   30.7450   60.1090 O.2   262  GLU262     -0.2867
    166  CB        27.4910   28.5890   59.2190 C.3   262  GLU262      0.0388
    167  CG        28.0810   27.9660   57.9590 C.3   262  GLU262      0.1160
    168  CD        27.2710   28.2580   56.7030 C.2   262  GLU262      0.3649
    169  OE1       26.0470   28.4900   56.8050 O.co2 262  GLU262     -0.2457
    170  OE2       27.8660   28.2390   55.6050 O.co2 262  GLU262     -0.2457
    171  N         13.9000   25.0830   60.3820 N.3   363  ARG363     -0.1245
    172  CA        14.7600   24.6140   61.4630 C.3   363  ARG363      0.1563
    173  C         14.9450   25.8150   62.4060 C.2   363  ARG363      0.2260
    174  O         14.9840   26.9660   61.9630 O.2   363  ARG363     -0.2867
    175  CB        16.1150   24.1540   60.9100 C.3   363  ARG363      0.0307
    176  CG        16.9050   25.2500   60.1980 C.3   363  ARG363      0.0489
    177  CD        18.1670   24.7080   59.5390 C.3   363  ARG363      0.2205
    178  NE        18.8170   25.7240   58.7150 N.pl3 363  ARG363     -0.0865
    179  CZ        19.8430   25.4930   57.9000 C.cat 363  ARG363      0.5346
    180  NH1       20.3550   24.2740   57.7900 N.pl3 363  ARG363      0.1354
    181  NH2       20.3450   26.4850   57.1770 N.pl3 363  ARG363      0.1354
    182  N         20.9320   26.1240   63.2120 N.3   366  TYR366     -0.1241
    183  CA        21.7740   25.5590   62.1650 C.3   366  TYR366      0.1605
    184  C         22.4240   24.3000   62.7410 C.2   366  TYR366      0.2264
    185  O         22.8820   23.4230   62.0040 O.2   366  TYR366     -0.2867
    186  CB        22.8710   26.5640   61.7900 C.3   366  TYR366      0.0534
    187  CG        23.6810   26.2090   60.5580 C.ar  366  TYR366     -0.0201
    188  CD1       23.1600   26.3900   59.2760 C.ar  366  TYR366     -0.0009
    189  CD2       24.9830   25.7160   60.6740 C.ar  366  TYR366     -0.0009
    190  CE1       23.9170   26.0930   58.1380 C.ar  366  TYR366      0.0417
    191  CE2       25.7450   25.4140   59.5420 C.ar  366  TYR366      0.0417
    192  CZ        25.2070   25.6040   58.2810 C.ar  366  TYR366      0.1957
    193  OH        25.9540   25.2990   57.1670 O.3   366  TYR366     -0.2866
    194  N         21.6500   21.3820   63.8300 N.3   368  ASN368     -0.1225
    195  CA        20.7400   20.2500   63.8530 C.3   368  ASN368      0.1785
    196  C         21.2810   19.1530   62.9440 C.2   368  ASN368      0.2597
    197  O         22.4490   19.1780   62.5550 O.2   368  ASN368     -0.2718
    198  CB        19.3480   20.6950   63.3930 C.3   368  ASN368      0.1169
    199  CG        19.3130   21.0720   61.9260 C.2   368  ASN368      0.2627
    200  OD1       20.3540   21.1790   61.2770 O.2   368  ASN368     -0.2716
    201  ND2       18.1150   21.2780   61.3940 N.am  368  ASN368     -0.0877
    202  N         20.4320   18.1870   62.6150 N.am  369  PHE369     -0.1962
    203  CA        20.8190   17.0830   61.7460 C.3   369  PHE369      0.1771
    204  C         19.8290   16.9290   60.6050 C.2   369  PHE369      0.2619
    205  O         18.6170   16.9640   60.8200 O.2   369  PHE369     -0.2715
    206  CB        20.8810   15.7810   62.5470 C.3   369  PHE369      0.0574
    207  CG        22.0710   15.6890   63.4520 C.ar  369  PHE369     -0.0200
    208  CD1       23.3110   15.3050   62.9510 C.ar  369  PHE369     -0.0042
    209  CD2       21.9690   16.0410   64.7920 C.ar  369  PHE369     -0.0042
    210  CE1       24.4310   15.2700   63.7760 C.ar  369  PHE369     -0.0003
    211  CE2       23.0800   16.0110   65.6260 C.ar  369  PHE369     -0.0003
    212  CZ        24.3180   15.6270   65.1140 C.ar  369  PHE369     -0.0000
    213  N         20.3400   16.7630   59.3900 N.am  370  ASP370     -0.1971
    214  CA        19.4670   16.5830   58.2400 C.3   370  ASP370      0.1709
    215  C         18.6740   15.2950   58.4000 C.2   370  ASP370      0.2293
    216  O         19.1420   14.3370   59.0200 O.2   370  ASP370     -0.2864
    217  CB        20.2830   16.5470   56.9460 C.3   370  ASP370      0.1436
    218  CG        20.4900   17.9260   56.3580 C.2   370  ASP370      0.3671
    219  OD1       19.4850   18.5520   55.9580 O.co2 370  ASP370     -0.2456
    220  OD2       21.6470   18.3890   56.3010 O.co2 370  ASP370     -0.2456
    221  N         24.3860    8.7000   60.3150 N.3   423  PHE423     -0.1241
    222  CA        25.5140    9.4370   60.8710 C.3   423  PHE423      0.1605
    223  C         26.3970    8.5420   61.7350 C.2   423  PHE423      0.2264
    224  O         27.5920    8.4030   61.4770 O.2   423  PHE423     -0.2867
    225  CB        25.0150   10.6250   61.6980 C.3   423  PHE423      0.0534
    226  CG        24.0380   11.5010   60.9670 C.ar  423  PHE423     -0.0203
    227  CD1       22.6900   11.1610   60.9050 C.ar  423  PHE423     -0.0042
    228  CD2       24.4670   12.6570   60.3230 C.ar  423  PHE423     -0.0042
    229  CE1       21.7830   11.9590   60.2120 C.ar  423  PHE423     -0.0003
    230  CE2       23.5670   13.4620   59.6270 C.ar  423  PHE423     -0.0003
    231  CZ        22.2230   13.1110   59.5720 C.ar  423  PHE423     -0.0000
@<TRIPOS>BOND
     1    22    23    1
     2    24    23    1
     3    24    25    2
     4    23    26    1
     5    55    57   ar
     6    55    53   ar
     7    61    60    2
     8    26    27    1
     9    57    56   ar
    10    30    31    1
    11    53    52   ar
    12    69    68    1
    13    69    70    2
    14    41    40    2
    15    68    71    1
    16    68    67    1
    17    28    27   ar
    18    60    67   am
    19    60    59    1
    20    56    54   ar
    21    27    29   ar
    22    52    54   ar
    23    52    51    1
    24    31    32    1
    25    31    34    1
    26    40    47   am
    27    40    39    1
    28    48    51    1
    29    48    47    1
    30    48    49    1
    31    58    59    1
    32    58    49   am
    33    38    32   am
    34    38    39    1
    35    65    64   ar
    36    63    64    1
    37    63    62    1
    38    71    72    1
    39    36    34    1
    40    42    39    1
    41    42    43    1
    42    32    33    2
    43    59    62    1
    44    64    66   ar
    45    49    50    2
    46    34    35    1
    47   105   106    1
    48   105   102    1
    49   106   107    1
    50    43    44    1
    51    35    37    1
    52   104   103    2
    53    83    82   ar
    54    83    81   ar
    55   103   102    1
    56   108   107   ar
    57   102   101    1
    58    82    80   ar
    59   107   109   ar
    60    81    79   ar
    61    86    87    2
    62    86    85    1
    63    90    88    1
    64    44    46   am
    65    44    45    2
    66    88    85    1
    67    88    89    1
    68   101    93   am
    69   112   113    2
    70   112   111    1
    71    80    78   ar
    72    85    84    1
    73    79    78   ar
    74     1     2    1
    75    73    74    1
    76     6     5    1
    77   114   111    1
    78   114   115    1
    79    78    77    1
    80    93    94    2
    81    93    92    1
    82   111   110    1
    83    91    92    1
    84    18    17    2
    85    17    16    1
    86     4     3    2
    87    74    77    1
    88    74    75    1
    89     2     5    1
    90     2     3    1
    91     7     5    1
    92    92    95    1
    93   115   117   ar
    94   115   116   ar
    95   117   119   ar
    96     3     8   am
    97    95    96    1
    98    11    10    2
    99    75    76    2
   100    98    96   ar
   101    98   100   ar
   102    16    15    1
   103    16    19    1
   104    20    19    1
   105   116   118   ar
   106    96    97   ar
   107    10    15   am
   108    10     9    1
   109   119   118   ar
   110     8     9    1
   111     8    14    1
   112    19    21    1
   113   100    99   ar
   114     9    12    1
   115   170   168   ar
   116    97    99   ar
   117    14    13    1
   118   219   218   ar
   119   220   218   ar
   120   218   217    1
   121    12    13    1
   122   168   169   ar
   123   168   167    1
   124   217   214    1
   125   193   192    1
   126   181   179    1
   127   180   179    1
   128   179   178    2
   129   167   166    1
   130   190   192   ar
   131   190   188   ar
   132   214   215    1
   133   214   213    1
   134   192   191   ar
   135   215   216    2
   136   178   177    1
   137   163   166    1
   138   163   162    1
   139   163   164    1
   140   188   187   ar
   141   213   204   am
   142   177   176    1
   143   191   189   ar
   144   231   230   ar
   145   231   229   ar
   146   230   228   ar
   147   165   164    2
   148   176   175    1
   149   229   227   ar
   150   221   222    1
   151   228   226   ar
   152   171   172    1
   153   187   189   ar
   154   187   186    1
   155   204   205    2
   156   204   203    1
   157   222   225    1
   158   222   223    1
   159   227   226   ar
   160   175   172    1
   161   226   225    1
   162   200   199    2
   163   201   199   am
   164   172   173    1
   165   224   223    2
   166   203   206    1
   167   203   202    1
   168   186   183    1
   169   149   148    2
   170   199   198    1
   171   174   173    2
   172   185   184    2
   173   183   184    1
   174   183   182    1
   175   160   159    1
   176   145   143    1
   177   157   156    1
   178   157   158    2
   179   206   207    1
   180   197   196    2
   181   202   196   am
   182   156   159    1
   183   156   155    1
   184   196   195    1
   185   208   207   ar
   186   208   210   ar
   187   148   155   am
   188   148   147    1
   189   159   161    1
   190   131   130    1
   191   198   195    1
   192   207   209   ar
   193   144   143    1
   194   153   152   ar
   195   210   212   ar
   196   143   142    1
   197   194   195    1
   198   146   147    1
   199   146   140   am
   200   150   147    1
   201   150   151    1
   202   130   129   ar
   203   130   128   ar
   204   142   139    1
   205   139   140    1
   206   139   138    1
   207   129   127   ar
   208   152   151    1
   209   152   154   ar
   210   209   211   ar
   211   135   134    2
   212   140   141    2
   213   128   126   ar
   214   212   211   ar
   215   136   137    1
   216   136   133    1
   217   127   125   ar
   218   134   133    1
   219   133   132    1
   220   126   125   ar
   221   125   124    1
   222   123   122    2
   223   121   124    1
   224   121   122    1
   225   121   120    1
