@<TRIPOS>MOLECULE
tmp/3ddbA00.pdb
 253 249 0 0 0
SMALL
GASTEIGER

@<TRIPOS>ATOM
      1  N         30.9680    9.8280   51.2230 N.3    68  VAL68      -0.1231
      2  CA        30.7710   10.4750   52.5180 C.3    68  VAL68       0.1678
      3  C         29.3050   10.3150   52.9260 C.2    68  VAL68       0.2434
      4  O         28.4180   10.3230   52.0730 O.2    68  VAL68      -0.2733
      5  CB        31.1070   11.9830   52.4260 C.3    68  VAL68       0.0265
      6  CG1       31.1000   12.6170   53.8030 C.3    68  VAL68       0.0020
      7  CG2       32.4590   12.1680   51.7600 C.3    68  VAL68       0.0020
      8  N         29.0310   10.1580   54.2340 N.am   69  PRO69      -0.2718
      9  CA        27.6570    9.9970   54.7300 C.3    69  PRO69       0.1535
     10  C         26.6840   11.0460   54.1880 C.2    69  PRO69       0.2598
     11  O         25.7140   10.7170   53.4990 O.2    69  PRO69      -0.2715
     12  CB        27.8300   10.0980   56.2410 C.3    69  PRO69       0.0310
     13  CG        29.1580    9.4530   56.4500 C.3    69  PRO69       0.0237
     14  CD        29.9960   10.0590   55.3440 C.3    69  PRO69       0.0939
     15  N         26.9430   12.3090   54.5110 N.am   70  VAL70      -0.1978
     16  CA        26.0950   13.3950   54.0430 C.3    70  VAL70       0.1596
     17  C         26.5800   13.8660   52.6770 C.2    70  VAL70       0.2287
     18  O         27.4350   14.7470   52.5750 O.2    70  VAL70      -0.2864
     19  CB        26.1100   14.5920   55.0210 C.3    70  VAL70       0.0276
     20  CG1       25.2020   15.7040   54.5000 C.3    70  VAL70       0.0022
     21  CG2       25.6540   14.1400   56.4040 C.3    70  VAL70       0.0022
     22  N         24.5040   18.0280   46.9310 N.3   161  ILE161     -0.1231
     23  CA        24.0540   18.7890   48.0880 C.3   161  ILE161      0.1692
     24  C         25.0930   19.6620   48.7820 C.2   161  ILE161      0.2592
     25  O         24.8070   20.2750   49.8060 O.2   161  ILE161     -0.2718
     26  CB        23.3820   17.8610   49.1140 C.3   161  ILE161      0.0266
     27  CG1       24.3950   16.8630   49.6780 C.3   161  ILE161      0.0019
     28  CG2       22.2240   17.1310   48.4400 C.3   161  ILE161      0.0020
     29  CD1       23.8160   15.9260   50.7360 C.3   161  ILE161      0.0001
     30  N         26.2930   19.7370   48.2230 N.am  162  GLN162     -0.1966
     31  CA        27.3280   20.5830   48.8090 C.3   162  GLN162      0.1733
     32  C         27.2240   21.9870   48.2290 C.2   162  GLN162      0.2616
     33  O         27.9940   22.3540   47.3420 O.2   162  GLN162     -0.2715
     34  CB        28.7280   20.0190   48.5290 C.3   162  GLN162      0.0408
     35  CG        29.2490   19.0560   49.5920 C.3   162  GLN162      0.0908
     36  CD        29.4980   19.7230   50.9430 C.2   162  GLN162      0.2608
     37  OE1       29.9380   19.0740   51.8950 O.2   162  GLN162     -0.2717
     38  NE2       29.2130   21.0180   51.0320 N.am  162  GLN162     -0.0878
     39  N         26.2600   22.7640   48.7180 N.am  163  PHE163     -0.1960
     40  CA        26.0750   24.1380   48.2470 C.3   163  PHE163      0.1771
     41  C         27.1130   25.0120   48.9530 C.2   163  PHE163      0.2619
     42  O         27.3940   24.8090   50.1340 O.2   163  PHE163     -0.2715
     43  CB        24.6780   24.6750   48.5970 C.3   163  PHE163      0.0574
     44  CG        23.5260   23.8750   48.0340 C.ar  163  PHE163     -0.0200
     45  CD1       23.6970   22.9760   46.9860 C.ar  163  PHE163     -0.0042
     46  CD2       22.2410   24.0710   48.5380 C.ar  163  PHE163     -0.0042
     47  CE1       22.6010   22.2840   46.4490 C.ar  163  PHE163     -0.0003
     48  CE2       21.1470   23.3910   48.0110 C.ar  163  PHE163     -0.0003
     49  CZ        21.3240   22.4970   46.9670 C.ar  163  PHE163     -0.0000
     50  N         27.6770   25.9850   48.2440 N.am  164  GLU164     -0.1963
     51  CA        28.6800   26.8480   48.8520 C.3   164  GLU164      0.1733
     52  C         29.0190   28.0310   47.9680 C.2   164  GLU164      0.2616
     53  O         28.7180   28.0400   46.7770 O.2   164  GLU164     -0.2715
     54  CB        29.9590   26.0560   49.1350 C.3   164  GLU164      0.0429
     55  CG        30.5270   25.3550   47.9120 C.3   164  GLU164      0.1163
     56  CD        31.9260   24.8050   48.1370 C.2   164  GLU164      0.3649
     57  OE1       32.3310   23.8940   47.3850 O.co2 164  GLU164     -0.2457
     58  OE2       32.6240   25.2890   49.0530 O.co2 164  GLU164     -0.2457
     59  N         29.6710   29.0160   48.5730 N.am  165  CYS165     -0.1968
     60  CA        30.0900   30.2350   47.8950 C.3   165  CYS165      0.1712
     61  C         31.5680   30.0510   47.5240 C.2   165  CYS165      0.2296
     62  O         32.3970   29.7660   48.3910 O.2   165  CYS165     -0.2864
     63  CB        29.9070   31.4110   48.8610 C.3   165  CYS165      0.0983
     64  SG        29.4680   32.9930   48.1320 S.3   165  CYS165     -0.0798
     65  N         16.1520   19.8490   51.9140 N.3   194  PHE194     -0.1241
     66  CA        16.5170   18.9830   53.0160 C.3   194  PHE194      0.1605
     67  C         15.5340   18.9230   54.1630 C.2   194  PHE194      0.2264
     68  O         14.8220   19.8830   54.4500 O.2   194  PHE194     -0.2867
     69  CB        17.8860   19.4420   53.4950 C.3   194  PHE194      0.0534
     70  CG        18.8510   19.6500   52.3640 C.ar  194  PHE194     -0.0203
     71  CD1       19.6770   18.6180   51.9400 C.ar  194  PHE194     -0.0042
     72  CD2       18.8480   20.8450   51.6460 C.ar  194  PHE194     -0.0042
     73  CE1       20.4810   18.7660   50.8170 C.ar  194  PHE194     -0.0003
     74  CE2       19.6490   21.0020   50.5160 C.ar  194  PHE194     -0.0003
     75  CZ        20.4670   19.9560   50.1010 C.ar  194  PHE194     -0.0000
     76  N         17.7390   28.5650   52.1080 N.3   220  THR220     -0.1218
     77  CA        19.0190   27.9790   51.7180 C.3   220  THR220      0.1862
     78  C         19.7890   28.9030   50.7800 C.2   220  THR220      0.2287
     79  O         20.9910   29.0990   50.9390 O.2   220  THR220     -0.2866
     80  CB        18.8030   26.6090   51.0520 C.3   220  THR220      0.1770
     81  OG1       18.0790   25.7720   51.9610 O.3   220  THR220     -0.2211
     82  CG2       20.1390   25.9420   50.7170 C.3   220  THR220      0.0375
     83  N         21.0610   32.0010   52.6200 N.3   223  HIS223     -0.1226
     84  CA        22.2400   31.6760   53.4260 C.3   223  HIS223      0.1752
     85  C         23.5010   31.9030   52.5860 C.2   223  HIS223      0.2595
     86  O         24.4530   32.5420   53.0370 O.2   223  HIS223     -0.2718
     87  CB        22.1600   30.2110   53.8840 C.3   223  HIS223      0.0759
     88  CG        23.3730   29.7240   54.6240 C.ar  223  HIS223      0.0818
     89  ND1       23.3950   29.5540   55.9930 N.ar  223  HIS223     -0.2268
     90  CD2       24.6010   29.3570   54.1830 C.ar  223  HIS223      0.1154
     91  CE1       24.5810   29.1050   56.3620 C.ar  223  HIS223      0.1986
     92  NE2       25.3320   28.9760   55.2850 N.ar  223  HIS223     -0.2212
     93  N         23.5050   31.3940   51.3570 N.am  224  GLU224     -0.1979
     94  CA        24.6760   31.5680   50.5030 C.3   224  GLU224      0.1602
     95  C         24.8430   33.0240   50.0680 C.2   224  GLU224      0.2287
     96  O         25.9680   33.5000   49.9140 O.2   224  GLU224     -0.2864
     97  CB        24.5950   30.6520   49.2820 C.3   224  GLU224      0.0415
     98  CG        24.6060   29.1530   49.6300 C.3   224  GLU224      0.1163
     99  CD        25.7680   28.7430   50.5300 C.2   224  GLU224      0.3649
    100  OE1       26.8630   29.3300   50.4180 O.co2 224  GLU224     -0.2457
    101  OE2       25.5880   27.8130   51.3460 O.co2 224  GLU224     -0.2457
    102  N         26.7370   34.8690   52.7030 N.3   227  HIS227     -0.1241
    103  CA        28.1760   34.6300   52.5950 C.3   227  HIS227      0.1621
    104  C         28.7200   35.4970   51.4550 C.2   227  HIS227      0.2264
    105  O         29.7890   36.0930   51.5770 O.2   227  HIS227     -0.2867
    106  CB        28.4900   33.1650   52.2500 C.3   227  HIS227      0.0745
    107  CG        28.3890   32.2140   53.4030 C.ar  227  HIS227      0.0817
    108  ND1       29.0920   32.3830   54.5780 N.ar  227  HIS227     -0.2268
    109  CD2       27.7240   31.0420   53.5300 C.ar  227  HIS227      0.1154
    110  CE1       28.8650   31.3540   55.3750 C.ar  227  HIS227      0.1986
    111  NE2       28.0390   30.5260   54.7620 N.ar  227  HIS227     -0.2212
    112  N         38.5830   30.9730   57.4400 N.3   239  PRO239     -0.2116
    113  CA        38.0480   29.6600   57.8180 C.3   239  PRO239      0.1372
    114  C         38.8570   28.9440   58.8970 C.2   239  PRO239      0.2244
    115  O         38.3500   28.0070   59.5150 O.2   239  PRO239     -0.2868
    116  CB        37.9860   28.8700   56.4980 C.3   239  PRO239      0.0268
    117  CG        38.6960   29.6990   55.4820 C.3   239  PRO239      0.0207
    118  CD        38.8720   31.0880   56.0040 C.3   239  PRO239      0.0892
    119  N         27.7570   14.7930   70.6600 N.3   250  TYR250     -0.1227
    120  CA        28.0290   14.0610   69.4290 C.3   250  TYR250      0.1736
    121  C         29.0660   14.7800   68.5690 C.2   250  TYR250      0.2595
    122  O         29.8920   14.1400   67.9130 O.2   250  TYR250     -0.2718
    123  CB        26.7190   13.8510   68.6710 C.3   250  TYR250      0.0548
    124  CG        25.6920   13.1060   69.5010 C.ar  250  TYR250     -0.0200
    125  CD1       25.7670   11.7220   69.6630 C.ar  250  TYR250     -0.0009
    126  CD2       24.6800   13.7930   70.1710 C.ar  250  TYR250     -0.0009
    127  CE1       24.8590   11.0420   70.4740 C.ar  250  TYR250      0.0417
    128  CE2       23.7680   13.1250   70.9850 C.ar  250  TYR250      0.0417
    129  CZ        23.8640   11.7510   71.1330 C.ar  250  TYR250      0.1957
    130  OH        22.9620   11.0910   71.9420 O.3   250  TYR250     -0.2866
    131  N         29.0220   16.1090   68.5640 N.am  251  TYR251     -0.1976
    132  CA        30.0040   16.8820   67.8130 C.3   251  TYR251      0.1639
    133  C         31.3550   16.6710   68.4960 C.2   251  TYR251      0.2290
    134  O         32.3700   16.4280   67.8450 O.2   251  TYR251     -0.2864
    135  CB        29.6550   18.3780   67.8300 C.3   251  TYR251      0.0560
    136  CG        28.8310   18.8510   66.6480 C.ar  251  TYR251     -0.0198
    137  CD1       27.5510   18.3460   66.4100 C.ar  251  TYR251     -0.0009
    138  CD2       29.3300   19.8160   65.7710 C.ar  251  TYR251     -0.0009
    139  CE1       26.7870   18.7930   65.3270 C.ar  251  TYR251      0.0417
    140  CE2       28.5760   20.2670   64.6860 C.ar  251  TYR251      0.0417
    141  CZ        27.3080   19.7520   64.4710 C.ar  251  TYR251      0.1957
    142  OH        26.5650   20.1930   63.3950 O.3   251  TYR251     -0.2866
    143  N         33.4620   13.6580   67.8790 N.3   254  SER254     -0.1217
    144  CA        33.9750   13.6630   66.5140 C.3   254  SER254      0.1889
    145  C         35.0360   14.7530   66.3650 C.2   254  SER254      0.2288
    146  O         35.7070   14.8430   65.3370 O.2   254  SER254     -0.2866
    147  CB        32.8340   13.9180   65.5220 C.3   254  SER254      0.2089
    148  OG        31.7830   12.9800   65.6920 O.3   254  SER254     -0.2183
    149  N         34.5780   17.7820   65.8910 N.3   256  LEU256     -0.1231
    150  CA        34.2050   18.7190   64.8400 C.3   256  LEU256      0.1693
    151  C         34.2820   20.1810   65.2550 C.2   256  LEU256      0.2592
    152  O         33.8160   20.5730   66.3260 O.2   256  LEU256     -0.2718
    153  CB        32.8030   18.4060   64.3070 C.3   256  LEU256      0.0284
    154  CG        32.7520   17.3510   63.1950 C.3   256  LEU256      0.0019
    155  CD1       31.3320   17.2190   62.6850 C.3   256  LEU256      0.0001
    156  CD2       33.6740   17.7550   62.0510 C.3   256  LEU256      0.0001
    157  N         34.8890   20.9810   64.3870 N.am  257  GLU257     -0.1966
    158  CA        35.0410   22.4060   64.6280 C.3   257  GLU257      0.1733
    159  C         34.2350   23.1200   63.5450 C.2   257  GLU257      0.2616
    160  O         34.2810   22.7270   62.3810 O.2   257  GLU257     -0.2715
    161  CB        36.5200   22.7980   64.5390 C.3   257  GLU257      0.0429
    162  CG        37.4550   21.8760   65.3230 C.3   257  GLU257      0.1163
    163  CD        38.8800   22.4000   65.4030 C.2   257  GLU257      0.3649
    164  OE1       39.4630   22.7270   64.3470 O.co2 257  GLU257     -0.2457
    165  OE2       39.4200   22.4810   66.5270 O.co2 257  GLU257     -0.2457
    166  N         33.4850   24.1470   63.9310 N.am  258  VAL258     -0.1977
    167  CA        32.6790   24.9020   62.9740 C.3   258  VAL258      0.1596
    168  C         33.2550   26.3100   62.8570 C.2   258  VAL258      0.2287
    169  O         33.5340   26.9530   63.8650 O.2   258  VAL258     -0.2864
    170  CB        31.2000   24.9790   63.4270 C.3   258  VAL258      0.0276
    171  CG1       30.3870   25.8010   62.4320 C.3   258  VAL258      0.0022
    172  CG2       30.6210   23.5760   63.5340 C.3   258  VAL258      0.0022
    173  N         30.5040   30.6020   59.5190 N.3   262  GLU262     -0.1245
    174  CA        29.2130   29.9180   59.4260 C.3   262  GLU262      0.1567
    175  C         28.2900   30.3070   60.5800 C.2   262  GLU262      0.2260
    176  O         27.0950   30.5220   60.3810 O.2   262  GLU262     -0.2867
    177  CB        29.3900   28.3950   59.4200 C.3   262  GLU262      0.0388
    178  CG        29.9890   27.8170   58.1390 C.3   262  GLU262      0.1160
    179  CD        29.1680   28.1100   56.8850 C.2   262  GLU262      0.3649
    180  OE1       27.9430   28.3390   56.9930 O.co2 262  GLU262     -0.2457
    181  OE2       29.7610   28.0970   55.7870 O.co2 262  GLU262     -0.2457
    182  N         15.6140   24.9610   60.6860 N.3   363  ARG363     -0.1245
    183  CA        16.4920   24.4700   61.7480 C.3   363  ARG363      0.1563
    184  C         16.7080   25.6560   62.6920 C.2   363  ARG363      0.2260
    185  O         16.7320   26.8110   62.2530 O.2   363  ARG363     -0.2867
    186  CB        17.8380   23.9850   61.1780 C.3   363  ARG363      0.0307
    187  CG        18.6350   25.0540   60.4380 C.3   363  ARG363      0.0489
    188  CD        19.9070   24.4970   59.7940 C.3   363  ARG363      0.2205
    189  NE        20.5550   25.5160   58.9660 N.pl3 363  ARG363     -0.0865
    190  CZ        21.5720   25.2870   58.1380 C.cat 363  ARG363      0.5346
    191  NH1       22.0810   24.0670   58.0160 N.pl3 363  ARG363      0.1354
    192  NH2       22.0650   26.2790   57.4090 N.pl3 363  ARG363      0.1354
    193  N         22.7900   25.8550   63.4410 N.3   366  TYR366     -0.1241
    194  CA        23.6300   25.2910   62.3930 C.3   366  TYR366      0.1605
    195  C         24.2940   24.0380   62.9780 C.2   366  TYR366      0.2264
    196  O         24.7600   23.1620   62.2490 O.2   366  TYR366     -0.2867
    197  CB        24.7020   26.3170   61.9890 C.3   366  TYR366      0.0534
    198  CG        25.5120   25.9770   60.7490 C.ar  366  TYR366     -0.0201
    199  CD1       24.9900   26.1740   59.4670 C.ar  366  TYR366     -0.0009
    200  CD2       26.8160   25.4870   60.8570 C.ar  366  TYR366     -0.0009
    201  CE1       25.7530   25.8940   58.3230 C.ar  366  TYR366      0.0417
    202  CE2       27.5860   25.2070   59.7250 C.ar  366  TYR366      0.0417
    203  CZ        27.0510   25.4130   58.4610 C.ar  366  TYR366      0.1957
    204  OH        27.8250   25.1570   57.3490 O.3   366  TYR366     -0.2866
    205  N         23.4750   21.1200   64.0910 N.3   368  ASN368     -0.1225
    206  CA        22.5480   19.9970   64.1580 C.3   368  ASN368      0.1785
    207  C         23.0420   18.8880   63.2360 C.2   368  ASN368      0.2597
    208  O         24.2010   18.8970   62.8150 O.2   368  ASN368     -0.2718
    209  CB        21.1550   20.4530   63.7250 C.3   368  ASN368      0.1169
    210  CG        21.1140   20.8700   62.2750 C.2   368  ASN368      0.2627
    211  OD1       22.1550   21.0080   61.6310 O.2   368  ASN368     -0.2716
    212  ND2       19.9100   21.0730   61.7460 N.am  368  ASN368     -0.0877
    213  N         22.1610   17.9410   62.9190 N.am  369  PHE369     -0.1962
    214  CA        22.4990   16.8280   62.0350 C.3   369  PHE369      0.1771
    215  C         21.5000   16.7170   60.8870 C.2   369  PHE369      0.2619
    216  O         20.2910   16.7980   61.0990 O.2   369  PHE369     -0.2715
    217  CB        22.5190   15.5140   62.8270 C.3   369  PHE369      0.0574
    218  CG        23.7160   15.3700   63.7270 C.ar  369  PHE369     -0.0200
    219  CD1       24.9290   14.9130   63.2200 C.ar  369  PHE369     -0.0042
    220  CD2       23.6460   15.7420   65.0610 C.ar  369  PHE369     -0.0042
    221  CE1       26.0590   14.8330   64.0310 C.ar  369  PHE369     -0.0003
    222  CE2       24.7710   15.6670   65.8810 C.ar  369  PHE369     -0.0003
    223  CZ        25.9780   15.2120   65.3630 C.ar  369  PHE369     -0.0000
    224  N         22.0090   16.5350   59.6710 N.am  370  ASP370     -0.1971
    225  CA        21.1370   16.3910   58.5100 C.3   370  ASP370      0.1709
    226  C         20.3020   15.1220   58.6500 C.2   370  ASP370      0.2293
    227  O         20.7400   14.1460   59.2630 O.2   370  ASP370     -0.2864
    228  CB        21.9640   16.3450   57.2240 C.3   370  ASP370      0.1436
    229  CG        22.2230   17.7260   56.6560 C.2   370  ASP370      0.3671
    230  OD1       23.4020   18.0850   56.4690 O.co2 370  ASP370     -0.2456
    231  OD2       21.2420   18.4550   56.3960 O.co2 370  ASP370     -0.2456
    232  N         19.8800   10.1730   56.0780 N.3   419  PHE419     -0.1241
    233  CA        21.2070   10.3500   56.6550 C.3   419  PHE419      0.1605
    234  C         21.2740    9.8530   58.0950 C.2   419  PHE419      0.2264
    235  O         22.3420    9.4750   58.5810 O.2   419  PHE419     -0.2867
    236  CB        21.6130   11.8260   56.6250 C.3   419  PHE419      0.0534
    237  CG        21.6530   12.4210   55.2450 C.ar  419  PHE419     -0.0203
    238  CD1       22.4110   11.8290   54.2380 C.ar  419  PHE419     -0.0042
    239  CD2       20.9470   13.5870   54.9570 C.ar  419  PHE419     -0.0042
    240  CE1       22.4640   12.3870   52.9600 C.ar  419  PHE419     -0.0003
    241  CE2       20.9950   14.1540   53.6800 C.ar  419  PHE419     -0.0003
    242  CZ        21.7560   13.5510   52.6820 C.ar  419  PHE419     -0.0000
    243  N         25.8480    8.3730   60.5760 N.3   423  PHE423     -0.1241
    244  CA        26.9980    9.1220   61.0690 C.3   423  PHE423      0.1605
    245  C         27.9100    8.2340   61.9110 C.2   423  PHE423      0.2264
    246  O         29.1150    8.1590   61.6670 O.2   423  PHE423     -0.2867
    247  CB        26.5400   10.3260   61.9000 C.3   423  PHE423      0.0534
    248  CG        25.6260   11.2640   61.1590 C.ar  423  PHE423     -0.0203
    249  CD1       24.2540   11.0360   61.1200 C.ar  423  PHE423     -0.0042
    250  CD2       26.1390   12.3770   60.4970 C.ar  423  PHE423     -0.0042
    251  CE1       23.4040   11.9060   60.4330 C.ar  423  PHE423     -0.0003
    252  CE2       25.2990   13.2500   59.8070 C.ar  423  PHE423     -0.0003
    253  CZ        23.9280   13.0140   59.7760 C.ar  423  PHE423     -0.0000
@<TRIPOS>BOND
     1    47    49   ar
     2    47    45   ar
     3    53    52    2
     4    22    23    1
     5    49    48   ar
     6    45    44   ar
     7    33    32    2
     8    57    56   ar
     9    61    60    1
    10    61    62    2
    11    60    59    1
    12    60    63    1
    13    55    56    1
    14    55    54    1
    15    52    59   am
    16    52    51    1
    17    48    46   ar
    18    44    46   ar
    19    44    43    1
    20    23    24    1
    21    23    26    1
    22    64    63    1
    23    56    58   ar
    24    30    24   am
    25    30    31    1
    26    32    39   am
    27    32    31    1
    28    50    51    1
    29    50    41   am
    30    40    43    1
    31    40    39    1
    32    40    41    1
    33    28    26    1
    34    34    31    1
    35    34    35    1
    36    24    25    2
    37    51    54    1
    38    41    42    2
    39    26    27    1
    40    97    98    1
    41    97    94    1
    42    35    36    1
    43    98    99    1
    44    27    29    1
    45    96    95    2
    46    95    94    1
    47    75    74   ar
    48    75    73   ar
    49   100    99   ar
    50    94    93    1
    51    74    72   ar
    52    99   101   ar
    53    82    80    1
    54    78    79    2
    55    78    77    1
    56    73    71   ar
    57    36    38   am
    58    36    37    2
    59    80    77    1
    60    80    81    1
    61     1     2    1
    62    93    85   am
    63   104   105    2
    64   104   103    1
    65    72    70   ar
    66    77    76    1
    67     7     5    1
    68    65    66    1
    69    71    70   ar
    70     4     3    2
    71   106   103    1
    72   106   107    1
    73    70    69    1
    74     5     2    1
    75     5     6    1
    76     2     3    1
    77    18    17    2
    78    85    86    2
    79    85    84    1
    80   103   102    1
    81    83    84    1
    82    17    16    1
    83   242   240   ar
    84   242   241   ar
    85     3     8   am
    86   240   238   ar
    87    66    69    1
    88    66    67    1
    89   107   109   ar
    90   107   108   ar
    91    84    87    1
    92    11    10    2
    93   109   111   ar
    94   241   239   ar
    95    87    88    1
    96    16    15    1
    97    16    19    1
    98    67    68    2
    99    90    88   ar
   100    90    92   ar
   101    10    15   am
   102    10     9    1
   103     8     9    1
   104     8    14    1
   105   238   237   ar
   106    20    19    1
   107   108   110   ar
   108    88    89   ar
   109     9    12    1
   110   111   110   ar
   111   239   237   ar
   112    19    21    1
   113   237   236    1
   114    92    91   ar
   115    14    13    1
   116   117   118    1
   117   117   116    1
   118   181   179   ar
   119    89    91   ar
   120   118   112    1
   121   232   233    1
   122    12    13    1
   123   231   229   ar
   124   230   229   ar
   125   116   113    1
   126   236   233    1
   127   233   234    1
   128   229   228    1
   129   179   180   ar
   130   179   178    1
   131   228   225    1
   132   204   203    1
   133   192   190    1
   134   112   113    1
   135   113   114    1
   136   191   190    1
   137   234   235    2
   138   190   189    2
   139   178   177    1
   140   201   203   ar
   141   201   199   ar
   142   203   202   ar
   143   225   226    1
   144   225   224    1
   145   226   227    2
   146   114   115    2
   147   189   188    1
   148   177   174    1
   149   174   173    1
   150   174   175    1
   151   199   198   ar
   152   224   215   am
   153   202   200   ar
   154   253   252   ar
   155   253   251   ar
   156   188   187    1
   157   252   250   ar
   158   176   175    2
   159   251   249   ar
   160   187   186    1
   161   250   248   ar
   162   243   244    1
   163   182   183    1
   164   198   200   ar
   165   198   197    1
   166   215   216    2
   167   215   214    1
   168   244   247    1
   169   244   245    1
   170   249   248   ar
   171   248   247    1
   172   186   183    1
   173   211   210    2
   174   246   245    2
   175   212   210   am
   176   183   184    1
   177   197   194    1
   178   214   217    1
   179   214   213    1
   180   156   154    1
   181   196   195    2
   182   185   184    2
   183   210   209    1
   184   160   159    2
   185   194   195    1
   186   194   193    1
   187   171   170    1
   188   155   154    1
   189   208   207    2
   190   217   218    1
   191   168   167    1
   192   168   169    2
   193   213   207   am
   194   167   170    1
   195   167   166    1
   196   154   153    1
   197   219   218   ar
   198   219   221   ar
   199   207   206    1
   200   142   141    1
   201   170   172    1
   202   159   166   am
   203   159   158    1
   204   209   206    1
   205   218   220   ar
   206   221   223   ar
   207   205   206    1
   208   153   150    1
   209   164   163   ar
   210   157   158    1
   211   157   151   am
   212   141   140   ar
   213   141   139   ar
   214   161   158    1
   215   161   162    1
   216   140   138   ar
   217   150   151    1
   218   150   149    1
   219   220   222   ar
   220   151   152    2
   221   162   163    1
   222   139   137   ar
   223   146   145    2
   224   223   222   ar
   225   163   165   ar
   226   147   148    1
   227   147   144    1
   228   138   136   ar
   229   145   144    1
   230   137   136   ar
   231   144   143    1
   232   136   135    1
   233   132   135    1
   234   132   133    1
   235   132   131    1
   236   134   133    2
   237   122   121    2
   238   131   121   am
   239   121   120    1
   240   123   120    1
   241   123   124    1
   242   120   119    1
   243   124   125   ar
   244   124   126   ar
   245   125   127   ar
   246   126   128   ar
   247   127   129   ar
   248   128   129   ar
   249   129   130    1
