@<TRIPOS>MOLECULE
tmp/3dddA00.pdb
 168 163 0 0 0
SMALL
GASTEIGER

@<TRIPOS>ATOM
      1  N         44.6850    8.4530   -5.9920 N.3    31  ALA31      -0.1231
      2  CA        44.6110    8.3140   -4.5530 C.3    31  ALA31       0.1694
      3  C         44.4240    6.8440   -4.1080 C.2    31  ALA31       0.2592
      4  O         45.0690    6.4000   -3.1830 O.2    31  ALA31      -0.2718
      5  CB        43.5010    9.2290   -3.9780 C.3    31  ALA31       0.0304
      6  N         43.5490    6.0990   -4.7700 N.am   32  TYR32      -0.1976
      7  CA        43.2110    4.7310   -4.3530 C.3    32  TYR32       0.1639
      8  C         44.0050    3.6400   -5.1060 C.2    32  TYR32       0.2290
      9  O         43.7680    2.4690   -4.8670 O.2    32  TYR32      -0.2864
     10  CB        41.6870    4.4810   -4.5070 C.3    32  TYR32       0.0560
     11  CG        40.7900    5.2050   -3.4950 C.ar   32  TYR32      -0.0198
     12  CD1       40.4450    6.5380   -3.6750 C.ar   32  TYR32      -0.0009
     13  CD2       40.2790    4.5450   -2.3680 C.ar   32  TYR32      -0.0009
     14  CE1       39.5940    7.2040   -2.7770 C.ar   32  TYR32       0.0417
     15  CE2       39.4310    5.2130   -1.4290 C.ar   32  TYR32       0.0417
     16  CZ        39.0940    6.5480   -1.6520 C.ar   32  TYR32       0.1957
     17  OH        38.2780    7.2500   -0.7630 O.3    32  TYR32      -0.2866
     18  N         34.2110    9.3130   -0.6830 N.3    81  LEU81      -0.1245
     19  CA        34.9690    9.6340   -1.9040 C.3    81  LEU81       0.1561
     20  C         36.1010   10.6570   -1.6520 C.2    81  LEU81       0.2260
     21  O         36.5250   11.3620   -2.5530 O.2    81  LEU81      -0.2867
     22  CB        33.9980   10.0660   -3.0530 C.3    81  LEU81       0.0270
     23  CG        32.9410    9.0510   -3.5490 C.3    81  LEU81       0.0019
     24  CD1       32.2130    9.4730   -4.8790 C.3    81  LEU81       0.0001
     25  CD2       33.5910    7.6640   -3.7600 C.3    81  LEU81       0.0001
     26  N         39.8530   11.8280   -1.3690 N.3    82  GLY82      -0.1210
     27  CA        40.9790   11.4570   -2.1910 C.3    82  GLY82       0.1956
     28  C         41.8480   12.6530   -2.4870 C.2    82  GLY82       0.2611
     29  O         41.3470   13.6950   -2.9200 O.2    82  GLY82      -0.2717
     30  N         43.1530   12.5030   -2.2340 N.am   83  VAL83      -0.1979
     31  CA        44.1560   13.4790   -2.6560 C.3    83  VAL83       0.1595
     32  C         45.2370   12.7370   -3.3860 C.2    83  VAL83       0.2287
     33  O         45.6800   11.6800   -2.9470 O.2    83  VAL83      -0.2864
     34  CB        44.6950   14.2350   -1.4560 C.3    83  VAL83       0.0276
     35  CG1       45.9350   15.1250   -1.8160 C.3    83  VAL83       0.0022
     36  CG2       43.5310   15.0740   -0.8500 C.3    83  VAL83       0.0022
     37  N         50.5040   14.9490   -3.5010 N.3    87  TYR87      -0.1227
     38  CA        50.0300   16.1180   -2.7740 C.3    87  TYR87       0.1736
     39  C         49.5470   15.7440   -1.3890 C.2    87  TYR87       0.2595
     40  O         49.0310   16.5890   -0.6540 O.2    87  TYR87      -0.2718
     41  CB        48.9230   16.7980   -3.5820 C.3    87  TYR87       0.0548
     42  CG        49.4360   17.4680   -4.8200 C.ar   87  TYR87      -0.0200
     43  CD1       50.0000   18.7380   -4.7570 C.ar   87  TYR87      -0.0009
     44  CD2       49.3800   16.8370   -6.0570 C.ar   87  TYR87      -0.0009
     45  CE1       50.4980   19.3760   -5.9000 C.ar   87  TYR87       0.0417
     46  CE2       49.8840   17.4590   -7.2050 C.ar   87  TYR87       0.0417
     47  CZ        50.4350   18.7350   -7.1140 C.ar   87  TYR87       0.1957
     48  OH        50.9190   19.3740   -8.2360 O.3    87  TYR87      -0.2866
     49  N         49.7240   14.4790   -1.0330 N.am   88  GLN88      -0.1965
     50  CA        49.2400   13.9850    0.2410 C.3    88  GLN88       0.1733
     51  C         50.0930   14.5460    1.3530 C.2    88  GLN88       0.2616
     52  O         51.2350   14.9950    1.1280 O.2    88  GLN88      -0.2715
     53  CB        49.2250   12.4510    0.2730 C.3    88  GLN88       0.0408
     54  CG        48.0670   11.8620   -0.5180 C.3    88  GLN88       0.0908
     55  CD        48.0730   10.3570   -0.5520 C.2    88  GLN88       0.2608
     56  OE1       48.9980    9.7310   -0.0670 O.2    88  GLN88      -0.2717
     57  NE2       47.0470    9.7690   -1.1500 N.am   88  GLN88      -0.0878
     58  N         49.5110   14.5470    2.5430 N.am   89  ARG89      -0.1963
     59  CA        50.2310   14.8140    3.7580 C.3    89  ARG89       0.1729
     60  C         50.7240   16.2420    3.8520 C.2    89  ARG89       0.2616
     61  O         51.7770   16.5260    4.4280 O.2    89  ARG89      -0.2715
     62  CB        51.3800   13.8030    3.9020 C.3    89  ARG89       0.0348
     63  CG        51.5090   13.2650    5.2670 C.3    89  ARG89       0.0492
     64  CD        50.2460   12.5600    5.6790 C.3    89  ARG89       0.2205
     65  NE        50.2730   12.3110    7.1120 N.pl3  89  ARG89      -0.0865
     66  CZ        50.7230   11.1940    7.6790 C.cat  89  ARG89       0.5346
     67  NH1       51.2030   10.1860    6.9450 N.pl3  89  ARG89       0.1354
     68  NH2       50.6780   11.0750    8.9900 N.pl3  89  ARG89       0.1354
     69  N         49.9340   17.1500    3.3070 N.am   90  ARG90      -0.1963
     70  CA        50.1720   18.5660    3.5120 C.3    90  ARG90       0.1729
     71  C         48.9270   19.3740    3.8940 C.2    90  ARG90       0.2617
     72  O         48.9170   20.5840    3.7430 O.2    90  ARG90      -0.2715
     73  CB        50.8570   19.1410    2.2810 C.3    90  ARG90       0.0348
     74  CG        50.0530   19.0670    1.0450 C.3    90  ARG90       0.0492
     75  CD        50.8000   19.6810   -0.0940 C.3    90  ARG90       0.2205
     76  NE        51.8170   18.7850   -0.6300 N.pl3  90  ARG90      -0.0865
     77  CZ        52.6100   19.0880   -1.6600 C.cat  90  ARG90       0.5346
     78  NH1       52.5100   20.2700   -2.2700 N.pl3  90  ARG90       0.1354
     79  NH2       53.5010   18.2030   -2.0850 N.pl3  90  ARG90       0.1354
     80  N         47.8990   18.7070    4.4240 N.am   91  GLY91      -0.1940
     81  CA        46.6710   19.3640    4.9010 C.3    91  GLY91       0.2014
     82  C         45.4860   19.5360    3.9560 C.2    91  GLY91       0.2639
     83  O         44.4650   20.0930    4.3500 O.2    91  GLY91      -0.2714
     84  N         45.6090   19.0770    2.7140 N.am   92  ILE92      -0.1963
     85  CA        44.5820   19.3020    1.6930 C.3    92  ILE92       0.1727
     86  C         43.3210   18.5300    2.0050 C.2    92  ILE92       0.2617
     87  O         42.2380   19.0980    2.0110 O.2    92  ILE92      -0.2715
     88  CB        45.0810   18.9870    0.2580 C.3    92  ILE92       0.0290
     89  CG1       46.2710   19.8920   -0.0720 C.3    92  ILE92       0.0022
     90  CG2       43.9530   19.1950   -0.7810 C.3    92  ILE92       0.0023
     91  CD1       46.9870   19.5380   -1.3720 C.3    92  ILE92       0.0001
     92  N         43.4540   17.2490    2.3130 N.am   93  GLY93      -0.1940
     93  CA        42.2890   16.4460    2.7030 C.3    93  GLY93       0.2014
     94  C         41.5500   16.9890    3.9170 C.2    93  GLY93       0.2639
     95  O         40.3150   17.0380    3.9280 O.2    93  GLY93      -0.2714
     96  N         42.3040   17.3900    4.9390 N.am   94  THR94      -0.1950
     97  CA        41.7480   18.0100    6.1470 C.3    94  THR94       0.1897
     98  C         40.8840   19.2260    5.8230 C.2    94  THR94       0.2313
     99  O         39.7800   19.3390    6.3490 O.2    94  THR94      -0.2863
    100  CB        42.8480   18.4240    7.1270 C.3    94  THR94       0.1794
    101  OG1       43.6100   17.2670    7.4990 O.3    94  THR94      -0.2208
    102  CG2       42.2340   19.0900    8.4000 C.3    94  THR94       0.0378
    103  N         32.5540    5.9170    6.4580 N.3   114  ASP114     -0.1239
    104  CA        33.3100    4.6710    6.5560 C.3   114  ASP114      0.1674
    105  C         34.7720    4.9240    6.2700 C.2   114  ASP114      0.2266
    106  O         35.1610    5.1640    5.1220 O.2   114  ASP114     -0.2867
    107  CB        32.7280    3.6520    5.6040 C.3   114  ASP114      0.1410
    108  CG        31.3820    3.1760    6.0690 C.2   114  ASP114      0.3668
    109  OD1       31.3590    2.4950    7.1140 O.co2 114  ASP114     -0.2456
    110  OD2       30.3540    3.4850    5.4070 O.co2 114  ASP114     -0.2456
    111  N         38.8290    4.4100    6.0670 N.3   116  SER116     -0.1202
    112  CA        40.0030    3.5780    5.7950 C.3   116  SER116      0.2020
    113  C         41.0980    3.8650    6.8150 C.2   116  SER116      0.2619
    114  O         40.9330    4.7380    7.6670 O.2   116  SER116     -0.2717
    115  CB        40.5240    3.8670    4.3890 C.3   116  SER116      0.2103
    116  OG        41.1470    5.1570    4.3190 O.3   116  SER116     -0.2182
    117  N         42.2170    3.1410    6.7360 N.am  117  SER117     -0.1937
    118  CA        43.3700    3.3870    7.6200 C.3   117  SER117      0.2055
    119  C         44.0100    4.7490    7.4240 C.2   117  SER117      0.2643
    120  O         44.5020    5.3180    8.3800 O.2   117  SER117     -0.2714
    121  CB        44.4750    2.3590    7.3920 C.3   117  SER117      0.2130
    122  OG        44.0120    1.0840    7.7150 O.3   117  SER117     -0.2179
    123  N         44.0610    5.2400    6.1830 N.am  118  GLN118     -0.1963
    124  CA        44.6430    6.5430    5.9380 C.3   118  GLN118      0.1733
    125  C         43.7290    7.6620    6.4230 C.2   118  GLN118      0.2616
    126  O         44.2040    8.6660    6.9550 O.2   118  GLN118     -0.2715
    127  CB        45.0060    6.7200    4.4590 C.3   118  GLN118      0.0408
    128  CG        46.2020    5.8860    4.0160 C.3   118  GLN118      0.0908
    129  CD        46.5560    6.0340    2.5440 C.2   118  GLN118      0.2608
    130  OE1       46.1380    6.9710    1.8680 O.2   118  GLN118     -0.2717
    131  NE2       47.3510    5.1040    2.0440 N.am  118  GLN118     -0.0878
    132  N         42.4210    7.4990    6.2570 N.am  119  GLY119     -0.1955
    133  CA        41.4730    8.5440    6.6460 C.3   119  GLY119      0.1869
    134  C         41.2460    8.6670    8.1440 C.2   119  GLY119      0.2309
    135  O         41.0480    9.7630    8.6670 O.2   119  GLY119     -0.2863
    136  N         42.6890    8.8640   10.9800 N.3   121  GLY121     -0.1210
    137  CA        43.3070    9.8940   11.8020 C.3   121  GLY121      0.1956
    138  C         42.8220   11.3030   11.5080 C.2   121  GLY121      0.2612
    139  O         42.8400   12.1490   12.3730 O.2   121  GLY121     -0.2717
    140  N         42.4670   11.5700   10.2610 N.am  122  LEU122     -0.1965
    141  CA        41.8570   12.8400    9.8530 C.3   122  LEU122      0.1728
    142  C         40.5190   13.0030   10.5830 C.2   122  LEU122      0.2616
    143  O         40.2870   13.9790   11.2810 O.2   122  LEU122     -0.2715
    144  CB        41.6710   12.8480    8.3270 C.3   122  LEU122      0.0311
    145  CG        41.5130   14.1420    7.5080 C.3   122  LEU122      0.0022
    146  CD1       41.7860   13.8930    5.9850 C.3   122  LEU122      0.0001
    147  CD2       40.1410   14.7170    7.6880 C.3   122  LEU122      0.0001
    148  N         39.6480   12.0120   10.4690 N.am  123  TYR123     -0.1974
    149  CA        38.2730   12.1430   10.9890 C.3   123  TYR123      0.1639
    150  C         38.2450   12.2250   12.5340 C.2   123  TYR123      0.2290
    151  O         37.3820   12.8800   13.1360 O.2   123  TYR123     -0.2864
    152  CB        37.4120   10.9920   10.4760 C.3   123  TYR123      0.0560
    153  CG        37.5510   10.7680    8.9630 C.ar  123  TYR123     -0.0198
    154  CD1       37.4670   11.8150    8.0680 C.ar  123  TYR123     -0.0009
    155  CD2       37.7770    9.5000    8.4530 C.ar  123  TYR123     -0.0009
    156  CE1       37.5970   11.5840    6.6650 C.ar  123  TYR123      0.0417
    157  CE2       37.8770    9.2600    7.0930 C.ar  123  TYR123      0.0417
    158  CZ        37.8160   10.3070    6.2090 C.ar  123  TYR123      0.1957
    159  OH        37.9650   10.0360    4.8810 O.3   123  TYR123     -0.2866
    160  N         40.4080   13.7480   14.4030 N.3   125  LYS125     -0.1245
    161  CA        40.6960   15.1420   14.7410 C.3   125  LYS125      0.1561
    162  C         39.4270   16.0040   14.8220 C.2   125  LYS125      0.2260
    163  O         39.4300   16.9690   15.5480 O.2   125  LYS125     -0.2867
    164  CB        41.6370   15.7810   13.7170 C.3   125  LYS125      0.0271
    165  CG        43.1060   15.3720   13.7970 C.3   125  LYS125      0.0035
    166  CD        43.8990   15.8400   12.5450 C.3   125  LYS125      0.0206
    167  CE        45.3850   15.4200   12.6150 C.3   125  LYS125      0.1093
    168  NZ        46.1890   16.3040   11.7060 N.3   125  LYS125     -0.1314
@<TRIPOS>BOND
     1    48    47    1
     2    46    47   ar
     3    46    44   ar
     4    47    45   ar
     5    44    42   ar
     6     1     2    1
     7    45    43   ar
     8     8     9    2
     9     8     7    1
    10    24    23    1
    11    42    43   ar
    12    42    41    1
    13     6     7    1
    14     6     3   am
    15     2     3    1
    16     2     5    1
    17    10     7    1
    18    10    11    1
    19     3     4    2
    20    25    23    1
    21    12    11   ar
    22    12    14   ar
    23    41    38    1
    24    23    22    1
    25    37    38    1
    26    11    13   ar
    27    32    33    2
    28    32    31    1
    29    22    19    1
    30    29    28    2
    31    14    16   ar
    32    38    39    1
    33    31    30    1
    34    31    34    1
    35    21    20    2
    36    28    30   am
    37    28    27    1
    38    13    15   ar
    39    78    77    1
    40    27    26    1
    41    79    77    1
    42    19    20    1
    43    19    18    1
    44    35    34    1
    45    77    76    2
    46    16    15   ar
    47    16    17    1
    48    34    36    1
    49    39    49   am
    50    39    40    2
    51    91    89    1
    52    57    55   am
    53    49    50    1
    54    90    88    1
    55    76    75    1
    56    55    54    1
    57    55    56    2
    58    54    53    1
    59    75    74    1
    60    89    88    1
    61    50    53    1
    62    50    51    1
    63    88    85    1
    64    74    73    1
    65    52    51    2
    66    51    58   am
    67    85    86    1
    68    85    84    1
    69   130   129    2
    70    86    87    2
    71    86    92   am
    72   131   129   am
    73    73    70    1
    74    92    93    1
    75    58    59    1
    76   129   128    1
    77    93    94    1
    78    84    82   am
    79    69    70    1
    80    69    60   am
    81    70    71    1
    82    72    71    2
    83    59    60    1
    84    59    62    1
    85    60    61    2
    86    71    80   am
    87    62    63    1
    88    94    95    2
    89    94    96   am
    90    82    83    2
    91    82    81    1
    92   128   127    1
    93   116   115    1
    94   115   112    1
    95    80    81    1
    96   127   124    1
    97   159   158    1
    98    96    97    1
    99   106   105    2
   100    63    64    1
   101   110   108   ar
   102   107   108    1
   103   107   104    1
   104    64    65    1
   105   112   111    1
   106   112   113    1
   107    98    97    1
   108    98    99    2
   109   124   123    1
   110   124   125    1
   111   146   145    1
   112   108   109   ar
   113    97   100    1
   114   123   119   am
   115   158   156   ar
   116   158   157   ar
   117   132   125   am
   118   132   133    1
   119   105   104    1
   120   125   126    2
   121   103   104    1
   122   133   134    1
   123   156   154   ar
   124   117   113   am
   125   117   118    1
   126   113   114    2
   127    67    66    1
   128   157   155   ar
   129    65    66    2
   130   100   101    1
   131   100   102    1
   132   121   118    1
   133   121   122    1
   134   119   118    1
   135   119   120    2
   136   145   147    1
   137   145   144    1
   138    66    68    1
   139   154   153   ar
   140   134   135    2
   141   144   141    1
   142   155   153   ar
   143   153   152    1
   144   141   140    1
   145   141   142    1
   146   140   138   am
   147   148   142   am
   148   148   149    1
   149   152   149    1
   150   142   143    2
   151   136   137    1
   152   149   150    1
   153   138   137    1
   154   138   139    2
   155   168   167    1
   156   150   151    2
   157   166   167    1
   158   166   165    1
   159   164   165    1
   160   164   161    1
   161   160   161    1
   162   161   162    1
   163   162   163    2
