@<TRIPOS>MOLECULE
tmp/3ddeB01.pdb
 80 76 0 0 0
SMALL
GASTEIGER

@<TRIPOS>ATOM
      1  N         -1.8900   31.1440  -88.7660 N.3   114  TYR114     -0.1241
      2  CA        -3.1350   31.8740  -88.9600 C.3   114  TYR114      0.1605
      3  C         -4.2800   31.4010  -88.0720 C.2   114  TYR114      0.2264
      4  O         -4.9570   32.2080  -87.4640 O.2   114  TYR114     -0.2867
      5  CB        -3.5630   31.8360  -90.4440 C.3   114  TYR114      0.0534
      6  CG        -4.8380   32.6130  -90.6800 C.ar  114  TYR114     -0.0201
      7  CD1       -4.8520   34.0130  -90.6220 C.ar  114  TYR114     -0.0009
      8  CD2       -6.0370   31.9540  -90.9150 C.ar  114  TYR114     -0.0009
      9  CE1       -6.0450   34.7130  -90.8220 C.ar  114  TYR114      0.0417
     10  CE2       -7.2140   32.6390  -91.1060 C.ar  114  TYR114      0.0417
     11  CZ        -7.2250   34.0070  -91.0640 C.ar  114  TYR114      0.1957
     12  OH        -8.4300   34.6610  -91.2710 O.3   114  TYR114     -0.2866
     13  N         -3.7380   32.3490  -84.4640 N.3   117  TRP117     -0.1227
     14  CA        -3.9350   33.7830  -84.3430 C.3   117  TRP117      0.1737
     15  C         -5.3980   34.1750  -84.2870 C.2   117  TRP117      0.2595
     16  O         -5.7780   34.9960  -83.4550 O.2   117  TRP117     -0.2718
     17  CB        -3.2240   34.5120  -85.4900 C.3   117  TRP117      0.0564
     18  CG        -3.3970   35.9990  -85.5080 C.ar  117  TRP117      0.0003
     19  CD1       -4.1580   36.7220  -86.3820 C.ar  117  TRP117      0.0946
     20  CD2       -2.7900   36.9510  -84.6210 C.ar  117  TRP117      0.0152
     21  NE1       -4.0500   38.0580  -86.1030 N.ar  117  TRP117     -0.2442
     22  CE2       -3.2280   38.2290  -85.0210 C.ar  117  TRP117      0.0810
     23  CE3       -1.9020   36.8450  -83.5360 C.ar  117  TRP117      0.0012
     24  CZ2       -2.8150   39.4150  -84.3650 C.ar  117  TRP117      0.0191
     25  CZ3       -1.5020   38.0120  -82.8760 C.ar  117  TRP117      0.0001
     26  CH2       -1.9510   39.2830  -83.3010 C.ar  117  TRP117      0.0015
     27  N         -6.2170   33.6110  -85.1630 N.am  118  ILE118     -0.1980
     28  CA        -7.6540   33.9460  -85.1780 C.3   118  ILE118      0.1595
     29  C         -8.4380   33.2440  -84.0650 C.2   118  ILE118      0.2287
     30  O         -9.5850   33.6130  -83.7680 O.2   118  ILE118     -0.2864
     31  CB        -8.2950   33.7900  -86.5890 C.3   118  ILE118      0.0276
     32  CG1       -8.3520   32.3250  -87.0940 C.3   118  ILE118      0.0022
     33  CG2       -7.5790   34.7030  -87.5720 C.3   118  ILE118      0.0022
     34  CD1       -9.5460   31.4430  -86.5430 C.3   118  ILE118      0.0001
     35  N         -7.1090   35.7160  -80.7760 N.3   121  THR121     -0.1203
     36  CA        -7.3690   37.1450  -80.8630 C.3   121  THR121      0.1994
     37  C         -8.6580   37.4370  -81.6350 C.2   121  THR121      0.2618
     38  O         -9.2110   36.5620  -82.2360 O.2   121  THR121     -0.2717
     39  CB        -6.1730   37.8960  -81.6010 C.3   121  THR121      0.1784
     40  OG1       -6.1600   37.5690  -82.9950 O.3   121  THR121     -0.2211
     41  CG2       -4.8100   37.5380  -81.0110 C.3   121  THR121      0.0376
     42  N         -9.0960   38.6960  -81.6050 N.am  122  GLY122     -0.1956
     43  CA       -10.2640   39.1830  -82.3340 C.3   122  GLY122      0.1869
     44  C        -11.6240   38.7160  -81.8390 C.2   122  GLY122      0.2309
     45  O        -11.7800   38.3250  -80.6830 O.2   122  GLY122     -0.2863
     46  N        -15.1210   34.0120  -84.8140 N.3   126  GLN126     -0.1245
     47  CA       -14.5300   33.8530  -86.1490 C.3   126  GLN126      0.1566
     48  C        -14.0000   32.4790  -86.5710 C.2   126  GLN126      0.2260
     49  O        -14.0380   32.1470  -87.7530 O.2   126  GLN126     -0.2867
     50  CB       -13.4690   34.9400  -86.4050 C.3   126  GLN126      0.0367
     51  CG       -12.1780   34.8260  -85.6010 C.3   126  GLN126      0.0905
     52  CD       -11.3180   36.0650  -85.7040 C.2   126  GLN126      0.2608
     53  OE1      -11.6360   36.9810  -86.4410 O.2   126  GLN126     -0.2717
     54  NE2      -10.2380   36.1060  -84.9480 N.am  126  GLN126     -0.0878
     55  N        -16.6320   38.6850  -89.5230 N.3   190  SER190     -0.1217
     56  CA       -15.4380   38.0570  -88.9790 C.3   190  SER190      0.1889
     57  C        -15.4010   36.5510  -89.3350 C.2   190  SER190      0.2288
     58  O        -14.3490   36.0070  -89.6640 O.2   190  SER190     -0.2866
     59  CB       -15.3380   38.2990  -87.4580 C.3   190  SER190      0.2089
     60  OG       -16.1960   37.4440  -86.7270 O.3   190  SER190     -0.2183
     61  N        -14.4810   36.3900  -93.1130 N.3   193  ALA193     -0.1231
     62  CA       -13.0790   36.7060  -93.3490 C.3   193  ALA193      0.1694
     63  C        -12.2160   35.4780  -93.0740 C.2   193  ALA193      0.2591
     64  O        -11.3300   35.1470  -93.8610 O.2   193  ALA193     -0.2718
     65  CB       -12.6380   37.8770  -92.4760 C.3   193  ALA193      0.0304
     66  N        -12.4900   34.7970  -91.9690 N.am  194  VAL194     -0.1980
     67  CA       -11.7290   33.5950  -91.5920 C.3   194  VAL194      0.1595
     68  C        -12.0060   32.4200  -92.5010 C.2   194  VAL194      0.2287
     69  O        -11.0830   31.6900  -92.8550 O.2   194  VAL194     -0.2864
     70  CB       -11.9530   33.2170  -90.1120 C.3   194  VAL194      0.0276
     71  CG1      -11.3540   31.8270  -89.7860 C.3   194  VAL194      0.0022
     72  CG2      -11.3570   34.3240  -89.2400 C.3   194  VAL194      0.0022
     73  N        -10.0190   33.2530  -95.7860 N.3   196  ASN196     -0.1240
     74  CA        -8.5720   33.1960  -95.7000 C.3   196  ASN196      0.1653
     75  C         -8.0320   31.8080  -95.3230 C.2   196  ASN196      0.2266
     76  O         -6.9690   31.4150  -95.7880 O.2   196  ASN196     -0.2867
     77  CB        -8.0280   34.2630  -94.7480 C.3   196  ASN196      0.1155
     78  CG        -6.5900   34.5640  -95.0090 C.2   196  ASN196      0.2627
     79  OD1       -6.2220   34.9570  -96.1260 O.2   196  ASN196     -0.2716
     80  ND2       -5.7620   34.3870  -94.0030 N.am  196  ASN196     -0.0877
@<TRIPOS>BOND
     1    79    78    2
     2    76    75    2
     3    73    74    1
     4    74    75    1
     5    74    77    1
     6    78    77    1
     7    78    80   am
     8    64    63    2
     9    62    61    1
    10    62    63    1
    11    62    65    1
    12    63    66   am
    13    69    68    2
    14    68    67    1
    15    66    67    1
    16    67    70    1
    17    12    11    1
    18    10    11   ar
    19    10     8   ar
    20    11     9   ar
    21     8     6   ar
    22     9     7   ar
    23     6     7   ar
    24     6     5    1
    25     5     2    1
    26    70    71    1
    27    70    72    1
    28    58    57    2
    29    55    56    1
    30    57    56    1
    31    56    59    1
    32     2     1    1
    33     2     3    1
    34     3     4    2
    35    49    48    2
    36    33    31    1
    37    59    60    1
    38    32    31    1
    39    32    34    1
    40    31    28    1
    41    48    47    1
    42    53    52    2
    43    50    47    1
    44    50    51    1
    45    19    21   ar
    46    19    18   ar
    47    47    46    1
    48    21    22   ar
    49    52    51    1
    50    52    54   am
    51    18    17    1
    52    18    20   ar
    53    17    14    1
    54    28    27    1
    55    28    29    1
    56    27    15   am
    57    22    20   ar
    58    22    24   ar
    59    20    23   ar
    60    13    14    1
    61    24    26   ar
    62    14    15    1
    63    15    16    2
    64    29    30    2
    65    23    25   ar
    66    26    25   ar
    67    40    39    1
    68    43    44    1
    69    43    42    1
    70    38    37    2
    71    44    45    2
    72    37    42   am
    73    37    36    1
    74    39    41    1
    75    39    36    1
    76    36    35    1
