@<TRIPOS>MOLECULE
tmp/3ddeB00.pdb
 172 169 0 0 0
SMALL
GASTEIGER

@<TRIPOS>ATOM
      1  N        -14.0550   26.9420 -104.1530 N.3    15  TRP15      -0.1241
      2  CA       -13.6590   25.5850 -104.5710 C.3    15  TRP15       0.1605
      3  C        -13.5340   25.4760 -106.0760 C.2    15  TRP15       0.2264
      4  O        -12.5870   24.8800 -106.5810 O.2    15  TRP15      -0.2867
      5  CB       -14.6310   24.5000 -104.0810 C.3    15  TRP15       0.0550
      6  CG       -14.4120   24.1510 -102.6640 C.ar   15  TRP15       0.0003
      7  CD1      -15.2680   24.3490 -101.6250 C.ar   15  TRP15       0.0946
      8  CD2      -13.2290   23.5790 -102.1090 C.ar   15  TRP15       0.0152
      9  NE1      -14.7080   23.9020 -100.4670 N.ar   15  TRP15      -0.2442
     10  CE2      -13.4500   23.4310 -100.7320 C.ar   15  TRP15       0.0810
     11  CE3      -12.0040   23.1670 -102.6500 C.ar   15  TRP15       0.0012
     12  CZ2      -12.4830   22.9080  -99.8730 C.ar   15  TRP15       0.0191
     13  CZ3      -11.0530   22.6310 -101.8090 C.ar   15  TRP15       0.0001
     14  CH2      -11.2930   22.5070 -100.4320 C.ar   15  TRP15       0.0015
     15  N         -2.0860   20.2020 -108.9600 N.3    24  PHE24      -0.1227
     16  CA        -2.1860   19.0260 -108.0940 C.3    24  PHE24       0.1736
     17  C         -3.5160   18.3000 -108.3570 C.2    24  PHE24       0.2595
     18  O         -3.5320   17.0960 -108.6220 O.2    24  PHE24      -0.2718
     19  CB        -2.0500   19.4490 -106.6210 C.3    24  PHE24       0.0547
     20  CG        -2.2840   18.3440 -105.6430 C.ar   24  PHE24      -0.0202
     21  CD1       -1.2910   17.4150 -105.3750 C.ar   24  PHE24      -0.0042
     22  CD2       -3.4970   18.2410 -104.9720 C.ar   24  PHE24      -0.0042
     23  CE1       -1.5140   16.3720 -104.4820 C.ar   24  PHE24      -0.0003
     24  CE2       -3.7330   17.1970 -104.0620 C.ar   24  PHE24      -0.0003
     25  CZ        -2.7380   16.2640 -103.8140 C.ar   24  PHE24      -0.0000
     26  N         -4.6130   19.0560 -108.3190 N.am   25  ILE25      -0.1980
     27  CA        -5.9510   18.5200 -108.5440 C.3    25  ILE25       0.1595
     28  C         -6.1160   17.9350 -109.9500 C.2    25  ILE25       0.2287
     29  O         -6.7180   16.8690 -110.1060 O.2    25  ILE25      -0.2864
     30  CB        -7.0380   19.5860 -108.2930 C.3    25  ILE25       0.0276
     31  CG1       -7.0440   20.0060 -106.8110 C.3    25  ILE25       0.0022
     32  CG2       -8.4110   19.0690 -108.7140 C.3    25  ILE25       0.0022
     33  CD1       -7.2560   18.8480 -105.8340 C.3    25  ILE25       0.0001
     34  N          1.1830   14.9240  -99.6760 N.3    41  TYR41      -0.1241
     35  CA        -0.0390   15.5980  -99.3170 C.3    41  TYR41       0.1605
     36  C         -0.5890   15.2120  -97.9320 C.2    41  TYR41       0.2264
     37  O         -1.0200   16.0970  -97.1920 O.2    41  TYR41      -0.2867
     38  CB        -1.1090   15.3700 -100.3860 C.3    41  TYR41       0.0534
     39  CG        -2.4110   15.9010  -99.9100 C.ar   41  TYR41      -0.0201
     40  CD1       -2.6640   17.2590  -99.9000 C.ar   41  TYR41      -0.0009
     41  CD2       -3.3640   15.0500  -99.3910 C.ar   41  TYR41      -0.0009
     42  CE1       -3.8410   17.7510  -99.4020 C.ar   41  TYR41       0.0417
     43  CE2       -4.5390   15.5300  -98.8940 C.ar   41  TYR41       0.0417
     44  CZ        -4.7690   16.8680  -98.9110 C.ar   41  TYR41       0.1957
     45  OH        -5.9540   17.3080  -98.4010 O.3    41  TYR41      -0.2866
     46  N         -0.9390   20.1880  -90.0860 N.3    47  TYR47      -0.1227
     47  CA        -1.9150   21.1840  -89.6010 C.3    47  TYR47       0.1736
     48  C         -3.0630   20.5850  -88.7580 C.2    47  TYR47       0.2596
     49  O         -3.5200   21.2200  -87.8170 O.2    47  TYR47      -0.2718
     50  CB        -2.4370   22.1180  -90.7190 C.3    47  TYR47       0.0548
     51  CG        -3.4800   21.5580  -91.6500 C.ar   47  TYR47      -0.0200
     52  CD1       -4.8070   21.5380  -91.2830 C.ar   47  TYR47      -0.0009
     53  CD2       -3.1450   21.1070  -92.9370 C.ar   47  TYR47      -0.0009
     54  CE1       -5.7700   21.0380  -92.1200 C.ar   47  TYR47       0.0417
     55  CE2       -4.0980   20.6150  -93.7930 C.ar   47  TYR47       0.0417
     56  CZ        -5.4170   20.5660  -93.3770 C.ar   47  TYR47       0.1957
     57  OH        -6.4170   20.0670  -94.2010 O.3    47  TYR47      -0.2866
     58  N         -3.4960   19.3640  -89.0620 N.am   48  THR48      -0.1953
     59  CA        -4.5570   18.6990  -88.3150 C.3    48  THR48       0.1897
     60  C         -4.1370   18.4750  -86.8450 C.2    48  THR48       0.2313
     61  O         -4.9380   18.5530  -85.9370 O.2    48  THR48      -0.2863
     62  CB        -4.9640   17.3730  -89.0220 C.3    48  THR48       0.1794
     63  OG1       -5.6250   17.6930  -90.2520 O.3    48  THR48      -0.2208
     64  CG2       -5.9150   16.5570  -88.1900 C.3    48  THR48       0.0378
     65  N         -5.4250   21.3680  -84.6400 N.3    51  ASN51      -0.1240
     66  CA        -6.8340   21.8050  -84.6500 C.3    51  ASN51       0.1653
     67  C         -7.5510   21.7340  -83.3240 C.2    51  ASN51       0.2266
     68  O         -8.3510   22.6060  -83.0300 O.2    51  ASN51      -0.2867
     69  CB        -7.7120   21.0040  -85.6360 C.3    51  ASN51       0.1155
     70  CG        -7.4970   21.3440  -87.1300 C.2    51  ASN51       0.2627
     71  OD1       -7.1680   22.4700  -87.5380 O.2    51  ASN51      -0.2716
     72  ND2       -7.7930   20.3390  -87.9650 N.am   51  ASN51      -0.0877
     73  N         -7.0140   13.2490  -84.1690 N.3    82  HIS82      -0.1241
     74  CA        -7.4500   13.0410  -85.5410 C.3    82  HIS82       0.1621
     75  C         -6.3070   12.9440  -86.5510 C.2    82  HIS82       0.2264
     76  O         -6.4420   12.2720  -87.5740 O.2    82  HIS82      -0.2867
     77  CB        -8.4500   14.1120  -85.9490 C.3    82  HIS82       0.0745
     78  CG        -9.0510   13.8720  -87.2880 C.ar   82  HIS82       0.0817
     79  ND1       -9.8560   12.7890  -87.5530 N.ar   82  HIS82      -0.2268
     80  CD2       -8.9560   14.5620  -88.4450 C.ar   82  HIS82       0.1154
     81  CE1      -10.2240   12.8140  -88.8190 C.ar   82  HIS82       0.1986
     82  NE2       -9.7030   13.8870  -89.3790 N.ar   82  HIS82      -0.2212
     83  N        -13.8010   28.8560  -90.3330 N.3   130  TYR130     -0.1241
     84  CA       -12.9130   27.7680  -90.7480 C.3   130  TYR130      0.1605
     85  C        -13.7010   26.4640  -90.7570 C.2   130  TYR130      0.2264
     86  O        -13.7300   25.7640  -91.7700 O.2   130  TYR130     -0.2867
     87  CB       -11.7210   27.6630  -89.8040 C.3   130  TYR130      0.0534
     88  CG       -10.8210   26.4550  -89.9990 C.ar  130  TYR130     -0.0201
     89  CD1      -10.4050   26.0590  -91.2660 C.ar  130  TYR130     -0.0009
     90  CD2      -10.3250   25.7500  -88.9050 C.ar  130  TYR130     -0.0009
     91  CE1       -9.5680   24.9930  -91.4430 C.ar  130  TYR130      0.0417
     92  CE2       -9.4740   24.6730  -89.0800 C.ar  130  TYR130      0.0417
     93  CZ        -9.1100   24.2990  -90.3600 C.ar  130  TYR130      0.1957
     94  OH        -8.2590   23.2370  -90.5520 O.3   130  TYR130     -0.2866
     95  N        -16.5040   25.6400  -93.7580 N.3   133  TRP133     -0.1227
     96  CA       -16.1250   24.9340  -94.9840 C.3   133  TRP133      0.1737
     97  C        -15.4490   23.6060  -94.6880 C.2   133  TRP133      0.2595
     98  O        -15.6590   22.6570  -95.4090 O.2   133  TRP133     -0.2718
     99  CB       -15.2350   25.7780  -95.9130 C.3   133  TRP133      0.0564
    100  CG       -13.8660   26.1010  -95.4280 C.ar  133  TRP133      0.0003
    101  CD1      -13.4810   27.2450  -94.8060 C.ar  133  TRP133      0.0946
    102  CD2      -12.6800   25.2940  -95.5600 C.ar  133  TRP133      0.0152
    103  NE1      -12.1400   27.2000  -94.5230 N.ar  133  TRP133     -0.2442
    104  CE2      -11.6240   26.0130  -94.9680 C.ar  133  TRP133      0.0810
    105  CE3      -12.4180   24.0260  -96.0970 C.ar  133  TRP133      0.0012
    106  CZ2      -10.3220   25.5180  -94.9020 C.ar  133  TRP133      0.0191
    107  CZ3      -11.1260   23.5280  -96.0320 C.ar  133  TRP133      0.0001
    108  CH2      -10.0910   24.2720  -95.4400 C.ar  133  TRP133      0.0015
    109  N        -14.6520   23.5610  -93.6190 N.am  134  ALA134     -0.1980
    110  CA       -13.8870   22.3890  -93.2400 C.3   134  ALA134      0.1597
    111  C        -14.7610   21.1650  -92.9110 C.2   134  ALA134      0.2287
    112  O        -14.4200   20.0620  -93.3160 O.2   134  ALA134     -0.2864
    113  CB       -12.9440   22.7160  -92.1070 C.3   134  ALA134      0.0319
    114  N        -16.6420   19.8710  -96.5160 N.3   137  VAL137     -0.1245
    115  CA       -15.7310   19.8240  -97.6730 C.3   137  VAL137      0.1561
    116  C        -15.9490   18.6520  -98.6570 C.2   137  VAL137      0.2260
    117  O        -15.8480   18.8170  -99.8790 O.2   137  VAL137     -0.2867
    118  CB       -14.2650   19.7510  -97.1920 C.3   137  VAL137      0.0252
    119  CG1      -13.9060   18.3120  -96.8120 C.3   137  VAL137      0.0019
    120  CG2      -13.3390   20.2480  -98.2700 C.3   137  VAL137      0.0019
    121  N        -14.8270   18.0040 -102.8190 N.3   141  ILE141     -0.1245
    122  CA       -13.6310   17.2200 -103.1430 C.3   141  ILE141      0.1561
    123  C        -13.9030   15.7370 -103.4300 C.2   141  ILE141      0.2260
    124  O        -12.9770   14.9900 -103.7450 O.2   141  ILE141     -0.2867
    125  CB       -12.5440   17.3390 -102.0530 C.3   141  ILE141      0.0252
    126  CG1      -12.9920   16.6980 -100.7280 C.3   141  ILE141      0.0019
    127  CG2      -12.1680   18.8110 -101.8580 C.3   141  ILE141      0.0019
    128  CD1      -11.8630   16.4840  -99.7210 C.3   141  ILE141      0.0001
    129  N        -12.2130   14.1530 -106.4850 N.3   144  VAL144     -0.1245
    130  CA       -10.7540   14.0460 -106.3530 C.3   144  VAL144      0.1561
    131  C        -10.3980   12.7990 -105.5210 C.2   144  VAL144      0.2260
    132  O         -9.4890   12.0380 -105.8690 O.2   144  VAL144     -0.2867
    133  CB       -10.1490   15.3340 -105.7290 C.3   144  VAL144      0.0252
    134  CG1       -8.6580   15.1930 -105.5030 C.3   144  VAL144      0.0019
    135  CG2      -10.4230   16.5320 -106.6270 C.3   144  VAL144      0.0019
    136  N         -8.6140    9.0330  -92.9790 N.3   160  PHE160     -0.1227
    137  CA        -8.7380   10.4450  -92.7400 C.3   160  PHE160      0.1736
    138  C         -9.9310   11.0740  -93.4550 C.2   160  PHE160      0.2595
    139  O        -10.6060   11.9350  -92.8950 O.2   160  PHE160     -0.2718
    140  CB        -7.4450   11.1710  -93.1150 C.3   160  PHE160      0.0547
    141  CG        -7.4820   12.6440  -92.8350 C.ar  160  PHE160     -0.0202
    142  CD1       -7.9460   13.5330  -93.7850 C.ar  160  PHE160     -0.0042
    143  CD2       -7.0670   13.1320  -91.6120 C.ar  160  PHE160     -0.0042
    144  CE1       -7.9970   14.8900  -93.5180 C.ar  160  PHE160     -0.0003
    145  CE2       -7.1020   14.4820  -91.3380 C.ar  160  PHE160     -0.0003
    146  CZ        -7.5760   15.3670  -92.2920 C.ar  160  PHE160     -0.0000
    147  N        -10.1800   10.6720  -94.6910 N.am  161  PHE161     -0.1976
    148  CA       -11.2880   11.2240  -95.4570 C.3   161  PHE161      0.1639
    149  C        -12.6040   10.4550  -95.4180 C.2   161  PHE161      0.2290
    150  O        -13.5970   10.9840  -95.8940 O.2   161  PHE161     -0.2864
    151  CB       -10.8820   11.4180  -96.9250 C.3   161  PHE161      0.0560
    152  CG        -9.9110   12.5380  -97.1390 C.ar  161  PHE161     -0.0200
    153  CD1      -10.3180   13.8590  -96.9720 C.ar  161  PHE161     -0.0042
    154  CD2       -8.6080   12.2840  -97.5470 C.ar  161  PHE161     -0.0042
    155  CE1       -9.4410   14.9120  -97.1650 C.ar  161  PHE161     -0.0003
    156  CE2       -7.7200   13.3250  -97.7610 C.ar  161  PHE161     -0.0003
    157  CZ        -8.1340   14.6520  -97.5550 C.ar  161  PHE161     -0.0000
    158  N         -5.1800   27.1360  -97.1590 N.3   201  THR201     -0.1218
    159  CA        -5.1950   25.6890  -97.3440 C.3   201  THR201      0.1862
    160  C         -4.8650   25.3770  -98.8110 C.2   201  THR201      0.2287
    161  O         -4.1330   24.4310  -99.0960 O.2   201  THR201     -0.2866
    162  CB        -6.5690   25.0570  -96.9080 C.3   201  THR201      0.1770
    163  OG1       -6.8970   25.4940  -95.5900 O.3   201  THR201     -0.2211
    164  CG2       -6.5260   23.5450  -96.9180 C.3   201  THR201      0.0375
    165  N         -1.5480   22.9730 -101.3540 N.3   205  LEU205     -0.1245
    166  CA        -1.5660   22.1700 -102.5900 C.3   205  LEU205      0.1561
    167  C         -0.4490   22.5930 -103.5410 C.2   205  LEU205      0.2260
    168  O          0.1570   21.7540 -104.1980 O.2   205  LEU205     -0.2867
    169  CB        -2.9210   22.2640 -103.3050 C.3   205  LEU205      0.0270
    170  CG        -4.1880   21.8570 -102.5410 C.3   205  LEU205      0.0019
    171  CD1       -5.4020   21.8650 -103.4650 C.3   205  LEU205      0.0001
    172  CD2       -4.0480   20.4950 -101.9010 C.3   205  LEU205      0.0001
@<TRIPOS>BOND
     1    29    28    2
     2    28    27    1
     3    15    16    1
     4    32    30    1
     5    18    17    2
     6    27    26    1
     7    27    30    1
     8    17    26   am
     9    17    16    1
    10    30    31    1
    11    16    19    1
    12    31    33    1
    13   135   133    1
    14    19    20    1
    15     4     3    2
    16   129   130    1
    17   130   133    1
    18   130   131    1
    19     3     2    1
    20   132   131    2
    21   133   134    1
    22    20    21   ar
    23    20    22   ar
    24    21    23   ar
    25    22    24   ar
    26     2     1    1
    27     2     5    1
    28    23    25   ar
    29   168   167    2
    30     5     6    1
    31    24    25   ar
    32   124   123    2
    33   167   166    1
    34   171   170    1
    35   123   122    1
    36   169   166    1
    37   169   170    1
    38   122   121    1
    39   122   125    1
    40     6     8   ar
    41     6     7   ar
    42    11     8   ar
    43    11    13   ar
    44   166   165    1
    45   170   172    1
    46     8    10   ar
    47   125   127    1
    48   125   126    1
    49    13    14   ar
    50     7     9   ar
    51    10     9   ar
    52    10    12   ar
    53   126   128    1
    54    14    12   ar
    55    38    39    1
    56    38    35    1
    57    39    40   ar
    58    39    41   ar
    59    40    42   ar
    60   117   116    2
    61    34    35    1
    62    42    44   ar
    63    41    43   ar
    64    35    36    1
    65   161   160    2
    66    44    43   ar
    67    44    45    1
    68   160   159    1
    69   116   115    1
    70   120   118    1
    71    36    37    2
    72   156   157   ar
    73   156   154   ar
    74   115   118    1
    75   115   114    1
    76   157   155   ar
    77   154   152   ar
    78   159   158    1
    79   159   162    1
    80   118   119    1
    81   155   153   ar
    82   152   153   ar
    83   152   151    1
    84   151   148    1
    85   164   162    1
    86   162   163    1
    87   105   107   ar
    88   105   102   ar
    89   107   108   ar
    90    99   100    1
    91    99    96    1
    92   150   149    2
    93   102   100   ar
    94   102   104   ar
    95   148   149    1
    96   148   147    1
    97   108   106   ar
    98   100   101   ar
    99    98    97    2
   100    96    97    1
   101    96    95    1
   102   104   106   ar
   103   104   103   ar
   104   101   103   ar
   105   147   138   am
   106    97   109   am
   107    57    56    1
   108    55    56   ar
   109    55    53   ar
   110   142   144   ar
   111   142   141   ar
   112   109   110    1
   113   144   146   ar
   114   138   139    2
   115   138   137    1
   116    56    54   ar
   117   112   111    2
   118   110   111    1
   119   110   113    1
   120   140   141    1
   121   140   137    1
   122   136   137    1
   123    53    51   ar
   124   141   143   ar
   125   146   145   ar
   126    54    52   ar
   127    86    85    2
   128    51    52   ar
   129    51    50    1
   130   143   145   ar
   131    91    89   ar
   132    91    93   ar
   133    89    88   ar
   134    85    84    1
   135    84    83    1
   136    84    87    1
   137    50    47    1
   138    94    93    1
   139    93    92   ar
   140    63    62    1
   141    46    47    1
   142    88    87    1
   143    88    90   ar
   144    47    48    1
   145    82    81   ar
   146    82    80   ar
   147    92    90   ar
   148    58    48   am
   149    58    59    1
   150    62    59    1
   151    62    64    1
   152    81    79   ar
   153    48    49    2
   154    80    78   ar
   155    59    60    1
   156    72    70   am
   157    76    75    2
   158    79    78   ar
   159    71    70    2
   160    78    77    1
   161    70    69    1
   162    60    61    2
   163    75    74    1
   164    77    74    1
   165    69    66    1
   166    74    73    1
   167    66    65    1
   168    66    67    1
   169    67    68    2
