@<TRIPOS>MOLECULE
tmp/3ddjA00.pdb
 145 139 0 0 0
SMALL
GASTEIGER

@<TRIPOS>ATOM
      1  N          4.6630   18.9480  -26.4020 N.3   122  GLU122     -0.1245
      2  CA         5.2560   19.9550  -27.3170 C.3   122  GLU122      0.1567
      3  C          6.1940   19.2670  -28.3250 C.2   122  GLU122      0.2260
      4  O          6.1880   19.6090  -29.4940 O.2   122  GLU122     -0.2867
      5  CB         6.0140   21.0210  -26.5300 C.3   122  GLU122      0.0388
      6  CG         5.0900   21.9430  -25.7630 C.3   122  GLU122      0.1160
      7  CD         5.7280   22.6990  -24.6520 C.2   122  GLU122      0.3649
      8  OE1        6.8890   22.4090  -24.2660 O.co2 122  GLU122     -0.2457
      9  OE2        5.0090   23.5590  -24.0790 O.co2 122  GLU122     -0.2457
     10  N         12.6980   34.2090  -26.3470 N.3   142  SER142     -0.1217
     11  CA        12.6160   35.1480  -25.2320 C.3   142  SER142      0.1889
     12  C         13.9630   35.7870  -24.9730 C.2   142  SER142      0.2288
     13  O         14.9900   35.1050  -24.9460 O.2   142  SER142     -0.2866
     14  CB        12.1320   34.4100  -23.9730 C.3   142  SER142      0.2089
     15  OG        10.8810   33.7790  -24.2250 O.3   142  SER142     -0.2183
     16  N         14.5970   38.2700  -22.1850 N.3   144  LYS144     -0.1231
     17  CA        15.0060   38.7600  -20.8480 C.3   144  LYS144      0.1693
     18  C         15.2540   37.5270  -20.0050 C.2   144  LYS144      0.2592
     19  O         14.4050   37.1100  -19.2180 O.2   144  LYS144     -0.2718
     20  CB        13.9560   39.6900  -20.2460 C.3   144  LYS144      0.0285
     21  CG        14.1470   41.1420  -20.6670 C.3   144  LYS144      0.0035
     22  CD        13.0520   42.0280  -20.0780 C.3   144  LYS144      0.0206
     23  CE        13.2000   43.4740  -20.4930 C.3   144  LYS144      0.1093
     24  NZ        12.3810   44.3590  -19.6080 N.3   144  LYS144     -0.1314
     25  N         16.3860   36.8850  -20.2410 N.am  145  VAL145     -0.1966
     26  CA        16.5110   35.4850  -19.8390 C.3   145  VAL145      0.1727
     27  C         16.8920   35.4000  -18.3640 C.2   145  VAL145      0.2616
     28  O         17.8380   36.0130  -17.9510 O.2   145  VAL145     -0.2715
     29  CB        17.4950   34.6960  -20.7510 C.3   145  VAL145      0.0290
     30  CG1       17.5470   33.2210  -20.3230 C.3   145  VAL145      0.0023
     31  CG2       17.0280   34.7840  -22.2090 C.3   145  VAL145      0.0023
     32  N         16.1360   34.6370  -17.5930 N.am  146  GLN146     -0.1977
     33  CA        16.4640   34.3750  -16.2090 C.3   146  GLN146      0.1601
     34  C         17.5650   33.3340  -16.1720 C.2   146  GLN146      0.2287
     35  O         17.3970   32.2500  -16.6980 O.2   146  GLN146     -0.2864
     36  CB        15.2420   33.8330  -15.4830 C.3   146  GLN146      0.0394
     37  CG        15.5140   33.4300  -14.0470 C.3   146  GLN146      0.0908
     38  CD        15.7450   34.5980  -13.2010 C.2   146  GLN146      0.2608
     39  OE1       14.8030   35.3590  -12.9470 O.2   146  GLN146     -0.2717
     40  NE2       16.9990   34.8050  -12.7670 N.am  146  GLN146     -0.0878
     41  N          8.6630   31.2800  -11.5810 N.3   163  ARG163     -0.1231
     42  CA         8.5560   31.9970  -12.8430 C.3   163  ARG163      0.1694
     43  C          7.9390   31.1790  -13.9630 C.2   163  ARG163      0.2593
     44  O          7.7160   31.6970  -15.0550 O.2   163  ARG163     -0.2718
     45  CB         9.9310   32.5250  -13.2260 C.3   163  ARG163      0.0321
     46  CG        10.4720   33.4330  -12.1090 C.3   163  ARG163      0.0489
     47  CD        11.2250   34.6170  -12.6140 C.3   163  ARG163      0.2205
     48  NE        10.5720   35.2080  -13.7790 N.pl3 163  ARG163     -0.0865
     49  CZ        11.2270   35.8640  -14.7320 C.cat 163  ARG163      0.5346
     50  NH1       12.5370   36.0290  -14.6390 N.pl3 163  ARG163      0.1354
     51  NH2       10.5760   36.3590  -15.7700 N.pl3 163  ARG163      0.1354
     52  N          7.6560   29.9030  -13.7000 N.am  164  GLY164     -0.1942
     53  CA         7.0500   29.0320  -14.6800 C.3   164  GLY164      0.2014
     54  C          7.9340   28.6520  -15.8580 C.2   164  GLY164      0.2639
     55  O          7.4600   28.5550  -17.0030 O.2   164  GLY164     -0.2714
     56  N          9.2190   28.4390  -15.5790 N.am  165  PHE165     -0.1959
     57  CA        10.1810   27.9920  -16.5870 C.3   165  PHE165      0.1771
     58  C         10.5850   26.5880  -16.2930 C.2   165  PHE165      0.2619
     59  O         10.7190   26.2180  -15.1290 O.2   165  PHE165     -0.2715
     60  CB        11.4440   28.8400  -16.5590 C.3   165  PHE165      0.0574
     61  CG        11.2090   30.2970  -16.8390 C.ar  165  PHE165     -0.0200
     62  CD1       10.3130   30.7030  -17.8160 C.ar  165  PHE165     -0.0042
     63  CD2       11.9430   31.2700  -16.1550 C.ar  165  PHE165     -0.0042
     64  CE1       10.1070   32.0510  -18.0570 C.ar  165  PHE165     -0.0003
     65  CE2       11.7630   32.5950  -16.4060 C.ar  165  PHE165     -0.0003
     66  CZ        10.8410   32.9960  -17.3750 C.ar  165  PHE165     -0.0000
     67  N         10.7950   25.8210  -17.3550 N.am  166  ARG166     -0.1963
     68  CA        11.3040   24.4850  -17.2400 C.3   166  ARG166      0.1729
     69  C         12.8270   24.4370  -17.1240 C.2   166  ARG166      0.2616
     70  O         13.3700   23.3990  -16.7750 O.2   166  ARG166     -0.2715
     71  CB        10.8710   23.6550  -18.4450 C.3   166  ARG166      0.0348
     72  CG         9.3750   23.4450  -18.5090 C.3   166  ARG166      0.0492
     73  CD         8.9970   22.5480  -19.6750 C.3   166  ARG166      0.2205
     74  NE         7.5640   22.6520  -19.9760 N.pl3 166  ARG166     -0.0865
     75  CZ         6.5750   22.0970  -19.2600 C.cat 166  ARG166      0.5346
     76  NH1        6.8260   21.3930  -18.1570 N.pl3 166  ARG166      0.1354
     77  NH2        5.3080   22.2740  -19.6390 N.pl3 166  ARG166      0.1354
     78  N         13.4970   25.5310  -17.4670 N.am  167  ARG167     -0.1963
     79  CA        14.9540   25.5280  -17.6620 C.3   167  ARG167      0.1729
     80  C         15.5470   26.8750  -17.3790 C.2   167  ARG167      0.2616
     81  O         14.9580   27.8850  -17.7120 O.2   167  ARG167     -0.2715
     82  CB        15.3220   25.1660  -19.0940 C.3   167  ARG167      0.0348
     83  CG        14.6460   23.9220  -19.6960 C.3   167  ARG167      0.0492
     84  CD        14.8090   23.9080  -21.2240 C.3   167  ARG167      0.2205
     85  NE        13.8220   23.0600  -21.8550 N.pl3 167  ARG167     -0.0865
     86  CZ        12.6010   23.4500  -22.1910 C.cat 167  ARG167      0.5346
     87  NH1       12.2210   24.7030  -22.0090 N.pl3 167  ARG167      0.1354
     88  NH2       11.7820   22.5790  -22.7530 N.pl3 167  ARG167      0.1354
     89  N         16.7350   26.8960  -16.7780 N.am  168  LEU168     -0.1964
     90  CA        17.4470   28.1460  -16.4990 C.3   168  LEU168      0.1713
     91  C         18.8550   28.0150  -17.0400 C.2   168  LEU168      0.2458
     92  O         19.5990   27.1650  -16.5750 O.2   168  LEU168     -0.2730
     93  CB        17.5910   28.4090  -15.0150 C.3   168  LEU168      0.0310
     94  CG        16.3260   28.4750  -14.1760 C.3   168  LEU168      0.0022
     95  CD1       16.6960   28.5550  -12.6650 C.3   168  LEU168      0.0001
     96  CD2       15.4390   29.6170  -14.6500 C.3   168  LEU168      0.0001
     97  N         19.2500   28.8780  -17.9620 N.am  169  PRO169     -0.2727
     98  CA        20.6900   28.8660  -18.2620 C.3   169  PRO169      0.1402
     99  C         21.5540   29.2130  -17.0430 C.2   169  PRO169      0.2269
    100  O         21.1710   30.0260  -16.2010 O.2   169  PRO169     -0.2865
    101  CB        20.8340   29.9300  -19.3660 C.3   169  PRO169      0.0296
    102  CG        19.4420   30.0180  -19.9700 C.3   169  PRO169      0.0237
    103  CD        18.5180   29.8250  -18.8310 C.3   169  PRO169      0.0939
    104  N         16.6890   32.6820  -25.5010 N.3   249  ILE249     -0.1245
    105  CA        16.3700   31.2930  -25.4160 C.3   249  ILE249      0.1561
    106  C         15.1030   31.0290  -26.2300 C.2   249  ILE249      0.2260
    107  O         14.1670   31.7790  -26.1650 O.2   249  ILE249     -0.2867
    108  CB        16.2470   30.8430  -23.9260 C.3   249  ILE249      0.0252
    109  CG1       16.2210   29.3200  -23.8590 C.3   249  ILE249      0.0019
    110  CG2       15.0190   31.4630  -23.2100 C.3   249  ILE249      0.0019
    111  CD1       16.3320   28.7370  -22.4060 C.3   249  ILE249      0.0001
    112  N         12.3690   27.8000  -27.0050 N.3   251  THR251     -0.1218
    113  CA        11.9810   26.4860  -26.5160 C.3   251  THR251      0.1862
    114  C         10.9070   25.8450  -27.4040 C.2   251  THR251      0.2287
    115  O         10.3050   26.4820  -28.2830 O.2   251  THR251     -0.2866
    116  CB        11.4580   26.5380  -25.0610 C.3   251  THR251      0.1770
    117  OG1       10.1280   27.0800  -25.0290 O.3   251  THR251     -0.2211
    118  CG2       12.3520   27.4010  -24.1920 C.3   251  THR251      0.0375
    119  N          8.0330   25.1920  -26.5130 N.3   253  ARG253     -0.1231
    120  CA         6.7880   25.9490  -26.2660 C.3   253  ARG253      0.1694
    121  C          6.6730   27.1120  -27.2540 C.2   253  ARG253      0.2592
    122  O          5.6450   27.3350  -27.8940 O.2   253  ARG253     -0.2718
    123  CB         6.8290   26.4920  -24.8570 C.3   253  ARG253      0.0321
    124  CG         5.7860   27.5230  -24.4630 C.3   253  ARG253      0.0489
    125  CD         4.3780   27.0720  -24.5870 C.3   253  ARG253      0.2205
    126  NE         3.4400   28.1790  -24.2950 N.pl3 253  ARG253     -0.0865
    127  CZ         2.1160   28.0600  -24.3850 C.cat 253  ARG253      0.5346
    128  NH1        1.6080   26.9140  -24.7200 N.pl3 253  ARG253      0.1354
    129  NH2        1.3110   29.0910  -24.1740 N.pl3 253  ARG253      0.1354
    130  N          7.7730   27.8300  -27.4050 N.am  254  ASP254     -0.1974
    131  CA         7.8480   28.9240  -28.4170 C.3   254  ASP254      0.1709
    132  C          7.5880   28.4560  -29.8350 C.2   254  ASP254      0.2293
    133  O          6.9220   29.1360  -30.6280 O.2   254  ASP254     -0.2864
    134  CB         9.2180   29.6110  -28.3740 C.3   254  ASP254      0.1436
    135  CG         9.4960   30.3120  -27.0590 C.2   254  ASP254      0.3671
    136  OD1        8.6390   31.0690  -26.5410 O.co2 254  ASP254     -0.2456
    137  OD2       10.6120   30.1070  -26.5540 O.co2 254  ASP254     -0.2456
    138  N          3.8930   27.8700  -30.2670 N.3   257  ILE257     -0.1245
    139  CA         3.2580   29.1700  -30.4470 C.3   257  ILE257      0.1561
    140  C          3.4170   29.6630  -31.8930 C.2   257  ILE257      0.2260
    141  O          2.4400   30.0540  -32.5560 O.2   257  ILE257     -0.2867
    142  CB         3.8130   30.1860  -29.4510 C.3   257  ILE257      0.0252
    143  CG1        3.2820   29.8820  -28.0420 C.3   257  ILE257      0.0019
    144  CG2        3.4540   31.6180  -29.8670 C.3   257  ILE257      0.0019
    145  CD1        3.9820   30.6310  -26.8780 C.3   257  ILE257      0.0001
@<TRIPOS>BOND
     1   141   140    2
     2   140   139    1
     3   133   132    2
     4   139   138    1
     5   139   142    1
     6   144   142    1
     7   132   131    1
     8     4     3    2
     9   142   143    1
    10   131   134    1
    11   131   130    1
    12   134   135    1
    13     3     2    1
    14   115   114    2
    15   143   145    1
    16   122   121    2
    17   130   121   am
    18   114   113    1
    19     2     5    1
    20     2     1    1
    21   121   120    1
    22   135   137   ar
    23   135   136   ar
    24   112   113    1
    25     5     6    1
    26   113   116    1
    27   119   120    1
    28    10    11    1
    29   120   123    1
    30   106   107    2
    31   106   105    1
    32     6     7    1
    33   104   105    1
    34   105   108    1
    35    11    12    1
    36    11    14    1
    37   116   117    1
    38   116   118    1
    39    12    13    2
    40   123   124    1
    41   128   127    1
    42     7     8   ar
    43     7     9   ar
    44   125   124    1
    45   125   126    1
    46   127   126    2
    47   127   129    1
    48    15    14    1
    49   108   109    1
    50   108   110    1
    51   109   111    1
    52    88    86    1
    53    31    29    1
    54    86    87    1
    55    86    85    2
    56    16    17    1
    57    85    84    1
    58    84    83    1
    59    17    20    1
    60    17    18    1
    61    29    30    1
    62    29    26    1
    63    21    20    1
    64    21    22    1
    65    23    22    1
    66    23    24    1
    67    25    18   am
    68    25    26    1
    69    18    19    2
    70    74    73    1
    71    74    75    2
    72   102   101    1
    73   102   103    1
    74    26    27    1
    75    83    82    1
    76    73    72    1
    77    77    75    1
    78   101    98    1
    79    75    76    1
    80    82    79    1
    81   103    97    1
    82    72    71    1
    83    71    68    1
    84    27    28    2
    85    27    32   am
    86    98    97    1
    87    98    99    1
    88    64    62   ar
    89    64    66   ar
    90    97    91   am
    91    62    61   ar
    92    81    80    2
    93    79    78    1
    94    79    80    1
    95    32    33    1
    96    78    69   am
    97    80    89   am
    98    66    65   ar
    99    67    68    1
   100    67    58   am
   101    68    69    1
   102    69    70    2
   103    99   100    2
   104    91    92    2
   105    91    90    1
   106    55    54    2
   107    61    60    1
   108    61    63   ar
   109    89    90    1
   110    35    34    2
   111    57    60    1
   112    57    58    1
   113    57    56    1
   114    90    93    1
   115    65    63   ar
   116    58    59    2
   117    33    34    1
   118    33    36    1
   119    54    56   am
   120    54    53    1
   121    51    49    1
   122    36    37    1
   123    44    43    2
   124    93    94    1
   125    49    50    1
   126    49    48    2
   127    53    52    1
   128    96    94    1
   129    94    95    1
   130    37    38    1
   131    43    52   am
   132    43    42    1
   133    48    47    1
   134    45    42    1
   135    45    46    1
   136    38    39    2
   137    38    40   am
   138    42    41    1
   139    47    46    1
