@<TRIPOS>MOLECULE
tmp/3ddjA01.pdb
 113 108 0 0 0
SMALL
GASTEIGER

@<TRIPOS>ATOM
      1  N          5.4350   13.5190  -17.5420 N.3    38  ARG38      -0.1245
      2  CA         4.0900   13.4910  -16.9450 C.3    38  ARG38       0.1563
      3  C          3.5810   12.0630  -16.8530 C.2    38  ARG38       0.2260
      4  O          3.9460   11.2020  -17.6530 O.2    38  ARG38      -0.2867
      5  CB         3.0520   14.2720  -17.7630 C.3    38  ARG38       0.0307
      6  CG         3.3130   15.7290  -17.9980 C.3    38  ARG38       0.0489
      7  CD         4.0610   15.9490  -19.2940 C.3    38  ARG38       0.2205
      8  NE         4.2130   17.3670  -19.5470 N.pl3  38  ARG38      -0.0865
      9  CZ         5.0390   17.8920  -20.4390 C.cat  38  ARG38       0.5346
     10  NH1        5.7830   17.1220  -21.1980 N.pl3  38  ARG38       0.1354
     11  NH2        5.1010   19.2140  -20.5680 N.pl3  38  ARG38       0.1354
     12  N         -3.6460   14.0980  -14.0150 N.3    49  LEU49      -0.1245
     13  CA        -2.3660   14.1760  -14.6870 C.3    49  LEU49       0.1561
     14  C         -1.3500   14.6710  -13.6640 C.2    49  LEU49       0.2260
     15  O         -1.5650   15.7020  -13.0000 O.2    49  LEU49      -0.2867
     16  CB        -2.4340   15.1480  -15.8660 C.3    49  LEU49       0.0270
     17  CG        -1.1100   15.3160  -16.6040 C.3    49  LEU49       0.0019
     18  CD1       -0.8210   14.0480  -17.3960 C.3    49  LEU49       0.0001
     19  CD2       -1.1830   16.5560  -17.5170 C.3    49  LEU49       0.0001
     20  N          2.2140   15.9950  -13.1560 N.3    51  THR51      -0.1218
     21  CA         3.2890   16.6370  -13.9180 C.3    51  THR51       0.1862
     22  C          4.5780   16.6910  -13.1030 C.2    51  THR51       0.2287
     23  O          4.5970   16.4930  -11.8780 O.2    51  THR51      -0.2866
     24  CB         2.9120   18.0670  -14.3080 C.3    51  THR51       0.1770
     25  OG1        2.7250   18.8400  -13.1390 O.3    51  THR51      -0.2211
     26  CG2        1.6200   18.1010  -15.1030 C.3    51  THR51       0.0375
     27  N          6.1990   19.4150  -12.4510 N.3    53  ARG53      -0.1245
     28  CA         5.9260   20.4970  -11.5120 C.3    53  ARG53       0.1563
     29  C          5.1870   20.0420  -10.2680 C.2    53  ARG53       0.2260
     30  O          5.5520   20.4200   -9.1370 O.2    53  ARG53      -0.2867
     31  CB         5.0750   21.5560  -12.1850 C.3    53  ARG53       0.0307
     32  CG         5.8090   22.5690  -12.9580 C.3    53  ARG53       0.0489
     33  CD         4.8360   23.7210  -13.3250 C.3    53  ARG53       0.2205
     34  NE         4.3580   24.4210  -12.1220 N.pl3  53  ARG53      -0.0865
     35  CZ         4.7820   25.6180  -11.7040 C.cat  53  ARG53       0.5346
     36  NH1        5.7010   26.3120  -12.3980 N.pl3  53  ARG53       0.1354
     37  NH2        4.2700   26.1330  -10.5860 N.pl3  53  ARG53       0.1354
     38  N         -3.0230   16.7550  -10.8880 N.3    81  THR81      -0.1218
     39  CA        -4.0180   17.6930  -11.3940 C.3    81  THR81       0.1862
     40  C         -5.2580   16.8610  -11.7720 C.2    81  THR81       0.2287
     41  O         -5.1980   16.0400  -12.7020 O.2    81  THR81      -0.2866
     42  CB        -3.4730   18.4540  -12.6090 C.3    81  THR81       0.1770
     43  OG1       -2.2260   19.0640  -12.2480 O.3    81  THR81      -0.2211
     44  CG2       -4.4740   19.4910  -13.1190 C.3    81  THR81       0.0375
     45  N         -8.0350   16.6010  -15.8680 N.3    84  PRO84      -0.2102
     46  CA        -7.1970   17.2880  -16.8400 C.3    84  PRO84       0.1504
     47  C         -7.8590   17.4530  -18.1770 C.2    84  PRO84       0.2575
     48  O         -8.7780   16.7230  -18.5150 O.2    84  PRO84      -0.2718
     49  CB        -5.9810   16.3790  -16.9910 C.3    84  PRO84       0.0282
     50  CG        -6.5150   15.0020  -16.6670 C.3    84  PRO84       0.0208
     51  CD        -7.5740   15.2280  -15.5960 C.3    84  PRO84       0.0893
     52  N         -7.3950   18.4300  -18.9290 N.am   85  VAL85      -0.1980
     53  CA        -7.8930   18.6560  -20.2660 C.3    85  VAL85       0.1595
     54  C         -7.2610   17.5880  -21.1530 C.2    85  VAL85       0.2287
     55  O         -6.0430   17.3330  -21.0720 O.2    85  VAL85      -0.2864
     56  CB        -7.4810   20.0610  -20.7910 C.3    85  VAL85       0.0276
     57  CG1       -7.9860   20.2300  -22.2200 C.3    85  VAL85       0.0022
     58  CG2       -7.9620   21.1740  -19.8260 C.3    85  VAL85       0.0022
     59  N         -2.1710   27.1990  -22.3140 N.3   103  ASN103     -0.1225
     60  CA        -0.8580   27.0020  -21.7080 C.3   103  ASN103      0.1785
     61  C         -0.6390   25.6290  -21.0450 C.2   103  ASN103      0.2597
     62  O         -0.3140   25.5090  -19.8590 O.2   103  ASN103     -0.2718
     63  CB        -0.5420   28.1570  -20.7310 C.3   103  ASN103      0.1169
     64  CG         0.9210   28.1900  -20.3050 C.2   103  ASN103      0.2627
     65  OD1        1.8190   27.7700  -21.0400 O.2   103  ASN103     -0.2716
     66  ND2        1.1610   28.6910  -19.0890 N.am  103  ASN103     -0.0877
     67  N         -0.8050   24.5850  -21.8450 N.am  104  PHE104     -0.1962
     68  CA        -0.5360   23.2270  -21.4410 C.3   104  PHE104      0.1771
     69  C          0.5990   22.7210  -22.2740 C.2   104  PHE104      0.2620
     70  O          0.6350   22.9160  -23.5020 O.2   104  PHE104     -0.2715
     71  CB        -1.7570   22.3330  -21.6350 C.3   104  PHE104      0.0574
     72  CG        -2.9440   22.7480  -20.8410 C.ar  104  PHE104     -0.0200
     73  CD1       -2.8640   22.8720  -19.4700 C.ar  104  PHE104     -0.0042
     74  CD2       -4.1520   23.0180  -21.4550 C.ar  104  PHE104     -0.0042
     75  CE1       -3.9700   23.2660  -18.7220 C.ar  104  PHE104     -0.0003
     76  CE2       -5.2570   23.4000  -20.7120 C.ar  104  PHE104     -0.0003
     77  CZ        -5.1700   23.5300  -19.3600 C.ar  104  PHE104     -0.0000
     78  N          1.5640   22.1060  -21.6110 N.am  105  GLY105     -0.1940
     79  CA         2.6640   21.4200  -22.3050 C.3   105  GLY105      0.2014
     80  C          2.4010   20.0080  -22.8020 C.2   105  GLY105      0.2640
     81  O          3.2220   19.4470  -23.5380 O.2   105  GLY105     -0.2714
     82  N          1.2370   19.4470  -22.4430 N.am  106  SER106     -0.1935
     83  CA         0.8780   18.0990  -22.8940 C.3   106  SER106      0.2055
     84  C         -0.6460   17.9920  -22.8680 C.2   106  SER106      0.2643
     85  O         -1.3130   18.7090  -22.1060 O.2   106  SER106     -0.2714
     86  CB         1.5150   16.9870  -22.0280 C.3   106  SER106      0.2130
     87  OG         0.9270   16.9290  -20.7360 O.3   106  SER106     -0.2179
     88  N         -1.1750   17.1050  -23.6930 N.am  107  LEU107     -0.1963
     89  CA        -2.5670   16.6720  -23.5850 C.3   107  LEU107      0.1713
     90  C         -2.6360   15.1470  -23.5960 C.2   107  LEU107      0.2458
     91  O         -2.1650   14.5220  -24.5580 O.2   107  LEU107     -0.2730
     92  CB        -3.3930   17.2390  -24.7320 C.3   107  LEU107      0.0310
     93  CG        -3.5980   18.7440  -24.8450 C.3   107  LEU107      0.0022
     94  CD1       -4.1850   19.0810  -26.2580 C.3   107  LEU107      0.0001
     95  CD2       -4.4830   19.2860  -23.6870 C.3   107  LEU107      0.0001
     96  N         -3.2020   14.5400  -22.5280 N.am  108  PRO108     -0.2727
     97  CA        -3.6090   13.1470  -22.6640 C.3   108  PRO108      0.1402
     98  C         -4.5980   12.9800  -23.8030 C.2   108  PRO108      0.2269
     99  O         -5.4270   13.8630  -24.0530 O.2   108  PRO108     -0.2865
    100  CB        -4.2410   12.8100  -21.3080 C.3   108  PRO108      0.0296
    101  CG        -3.7280   13.8670  -20.3720 C.3   108  PRO108      0.0237
    102  CD        -3.5760   15.0850  -21.2130 C.3   108  PRO108      0.0939
    103  N         10.7950   25.8210  -17.3550 N.3   166  ARG166     -0.1245
    104  CA        11.3040   24.4850  -17.2400 C.3   166  ARG166      0.1563
    105  C         12.8270   24.4370  -17.1240 C.2   166  ARG166      0.2260
    106  O         13.3700   23.3990  -16.7750 O.2   166  ARG166     -0.2867
    107  CB        10.8710   23.6550  -18.4450 C.3   166  ARG166      0.0307
    108  CG         9.3750   23.4450  -18.5090 C.3   166  ARG166      0.0489
    109  CD         8.9970   22.5480  -19.6750 C.3   166  ARG166      0.2205
    110  NE         7.5640   22.6520  -19.9760 N.pl3 166  ARG166     -0.0865
    111  CZ         6.5750   22.0970  -19.2600 C.cat 166  ARG166      0.5346
    112  NH1        6.8260   21.3930  -18.1570 N.pl3 166  ARG166      0.1354
    113  NH2        5.3080   22.2740  -19.6390 N.pl3 166  ARG166      0.1354
@<TRIPOS>BOND
     1    94    93    1
     2    93    92    1
     3    93    95    1
     4    92    89    1
     5    91    90    2
     6    99    98    2
     7    98    97    1
     8    88    89    1
     9    88    84   am
    10    90    89    1
    11    90    96   am
    12    81    80    2
    13    70    69    2
    14    83    84    1
    15    83    82    1
    16    83    86    1
    17    84    85    2
    18    80    82   am
    19    80    79    1
    20    97    96    1
    21    97   100    1
    22    96   102    1
    23    59    60    1
    24    79    78    1
    25    69    78   am
    26    69    68    1
    27    57    56    1
    28    86    87    1
    29    67    68    1
    30    67    61   am
    31    60    61    1
    32    60    63    1
    33    71    68    1
    34    71    72    1
    35    74    72   ar
    36    74    76   ar
    37   100   101    1
    38   102   101    1
    39    10     9    1
    40    54    55    2
    41    54    53    1
    42    61    62    2
    43    65    64    2
    44    72    73   ar
    45    56    53    1
    46    56    58    1
    47    63    64    1
    48    76    77   ar
    49    11     9    1
    50     9     8    2
    51    64    66   am
    52    53    52    1
    53   110   109    1
    54   110   111    2
    55   109   108    1
    56   113   111    1
    57     8     7    1
    58    73    75   ar
    59    77    75   ar
    60     7     6    1
    61   111   112    1
    62    52    47   am
    63    48    47    2
    64   108   107    1
    65   107   104    1
    66    47    46    1
    67     6     5    1
    68     5     2    1
    69     4     3    2
    70     1     2    1
    71    19    17    1
    72    18    17    1
    73   103   104    1
    74   104   105    1
    75   105   106    2
    76    49    46    1
    77    49    50    1
    78     2     3    1
    79    46    45    1
    80    50    51    1
    81    17    16    1
    82    45    51    1
    83    16    13    1
    84    26    24    1
    85    13    12    1
    86    13    14    1
    87    24    21    1
    88    24    25    1
    89    21    20    1
    90    21    22    1
    91    14    15    2
    92    33    32    1
    93    33    34    1
    94    44    42    1
    95    22    23    2
    96    32    31    1
    97    41    40    2
    98    42    43    1
    99    42    39    1
   100    27    28    1
   101    36    35    1
   102    31    28    1
   103    34    35    2
   104    40    39    1
   105    35    37    1
   106    28    29    1
   107    39    38    1
   108    29    30    2
