@<TRIPOS>MOLECULE
tmp/3ddlA03.pdb
 79 72 0 0 0
SMALL
GASTEIGER

@<TRIPOS>ATOM
      1  N         53.4600   21.3520   35.1840 N.3    12  LEU12      -0.1245
      2  CA        52.7780   21.0950   36.4480 C.3    12  LEU12       0.1561
      3  C         53.5320   20.0310   37.2330 C.2    12  LEU12       0.2260
      4  O         53.7700   20.1980   38.4330 O.2    12  LEU12      -0.2867
      5  CB        51.3500   20.6160   36.2250 C.3    12  LEU12       0.0270
      6  CG        50.6420   20.0780   37.4790 C.3    12  LEU12       0.0019
      7  CD1       50.5710   21.1630   38.5510 C.3    12  LEU12       0.0001
      8  CD2       49.2220   19.6270   37.1270 C.3    12  LEU12       0.0001
      9  N         44.8190    8.4390   56.4200 N.3   195  ALA195     -0.1231
     10  CA        44.4160    9.1460   55.2110 C.3   195  ALA195      0.1694
     11  C         45.4830    9.1330   54.1180 C.2   195  ALA195      0.2592
     12  O         45.1820    8.8720   52.9480 O.2   195  ALA195     -0.2718
     13  CB        44.0670   10.6130   55.5550 C.3   195  ALA195      0.0304
     14  N         46.7250    9.4450   54.4830 N.am  196  THR196     -0.1953
     15  CA        47.7600    9.4760   53.4600 C.3   196  THR196      0.1897
     16  C         48.1290    8.0620   53.0370 C.2   196  THR196      0.2313
     17  O         48.1950    7.7650   51.8460 O.2   196  THR196     -0.2863
     18  CB        49.0120   10.2560   53.9610 C.3   196  THR196      0.1794
     19  OG1       49.5380    9.6470   55.1540 O.3   196  THR196     -0.2208
     20  CG2       48.6220   11.7180   54.2760 C.3   196  THR196      0.0378
     21  N         45.7640    6.5190   50.6370 N.3   199  PHE199     -0.1241
     22  CA        45.8340    6.9180   49.2270 C.3   199  PHE199      0.1605
     23  C         46.5370    5.8890   48.3290 C.2   199  PHE199      0.2264
     24  O         46.0920    5.6110   47.2030 O.2   199  PHE199     -0.2867
     25  CB        46.5860    8.2560   49.0680 C.3   199  PHE199      0.0534
     26  CG        46.7650    8.6870   47.6290 C.ar  199  PHE199     -0.0203
     27  CD1       45.7300    9.3150   46.9370 C.ar  199  PHE199     -0.0042
     28  CD2       47.9450    8.4230   46.9520 C.ar  199  PHE199     -0.0042
     29  CE1       45.8700    9.6680   45.6020 C.ar  199  PHE199     -0.0003
     30  CE2       48.1010    8.7700   45.6120 C.ar  199  PHE199     -0.0003
     31  CZ        47.0700    9.3900   44.9300 C.ar  199  PHE199     -0.0000
     32  N         46.7610   12.6440   30.7520 N.3   214  GLY214     -0.1225
     33  CA        45.9770   12.8680   31.9590 C.3   214  GLY214      0.1811
     34  C         46.2230   11.9010   33.1120 C.2   214  GLY214      0.2280
     35  O         46.1960   12.2840   34.2780 O.2   214  GLY214     -0.2866
     36  N         49.9350   12.5460   34.7270 N.3   217  VAL217     -0.1231
     37  CA        49.9470   13.7950   35.4750 C.3   217  VAL217      0.1692
     38  C         49.2330   13.5830   36.7980 C.2   217  VAL217      0.2591
     39  O         49.7820   13.8730   37.8540 O.2   217  VAL217     -0.2718
     40  CB        49.2280   14.9230   34.6880 C.3   217  VAL217      0.0266
     41  CG1       49.0470   16.1730   35.5770 C.3   217  VAL217      0.0020
     42  CG2       50.0300   15.2650   33.4480 C.3   217  VAL217      0.0020
     43  N         48.0050   13.0660   36.7350 N.am  218  ALA218     -0.1980
     44  CA        47.2090   12.8310   37.9420 C.3   218  ALA218      0.1597
     45  C         47.9030   11.9460   38.9490 C.2   218  ALA218      0.2287
     46  O         47.8940   12.2470   40.1310 O.2   218  ALA218     -0.2864
     47  CB        45.8430   12.2230   37.5800 C.3   218  ALA218      0.0319
     48  N         51.1650   13.7100   40.4120 N.3   221  VAL221     -0.1231
     49  CA        50.7470   14.7660   41.3350 C.3   221  VAL221      0.1692
     50  C         50.1350   14.1850   42.6230 C.2   221  VAL221      0.2592
     51  O         50.4570   14.6440   43.7160 O.2   221  VAL221     -0.2718
     52  CB        49.7400   15.7430   40.6630 C.3   221  VAL221      0.0266
     53  CG1       49.2070   16.7460   41.6850 C.3   221  VAL221      0.0020
     54  CG2       50.4260   16.4630   39.5100 C.3   221  VAL221      0.0020
     55  N         49.2570   13.1890   42.4920 N.am  222  GLY222     -0.1957
     56  CA        48.6690   12.5420   43.6630 C.3   222  GLY222      0.1869
     57  C         49.7010   11.8440   44.5720 C.2   222  GLY222      0.2309
     58  O         49.6590   11.9920   45.7800 O.2   222  GLY222     -0.2863
     59  N         51.8320   14.5790   46.3910 N.3   225  ILE225     -0.1231
     60  CA        51.1100   15.2710   47.4640 C.3   225  ILE225      0.1692
     61  C         51.0250   14.3410   48.6790 C.2   225  ILE225      0.2591
     62  O         51.1930   14.7830   49.8190 O.2   225  ILE225     -0.2718
     63  CB        49.6620   15.6180   47.0470 C.3   225  ILE225      0.0266
     64  CG1       49.6790   16.7460   46.0090 C.3   225  ILE225      0.0019
     65  CG2       48.8290   15.9610   48.2850 C.3   225  ILE225      0.0020
     66  CD1       48.3250   16.9670   45.3200 C.3   225  ILE225      0.0001
     67  N         50.7530   13.0570   48.4300 N.am  226  ALA226     -0.1980
     68  CA        50.6520   12.0900   49.5100 C.3   226  ALA226      0.1597
     69  C         52.0190   11.9130   50.2160 C.2   226  ALA226      0.2287
     70  O         52.0910   11.8810   51.4400 O.2   226  ALA226     -0.2864
     71  CB        50.1230   10.7310   48.9500 C.3   226  ALA226      0.0319
     72  N         52.8250   14.9820   52.4540 N.3   229  LEU229     -0.1245
     73  CA        51.9770   14.9560   53.6510 C.3   229  LEU229      0.1561
     74  C         52.3180   13.8200   54.6030 C.2   229  LEU229      0.2260
     75  O         52.3010   13.9910   55.7970 O.2   229  LEU229     -0.2867
     76  CB        50.4930   14.8470   53.2550 C.3   229  LEU229      0.0270
     77  CG        49.8140   15.9850   52.4760 C.3   229  LEU229      0.0019
     78  CD1       48.3010   15.6620   52.3050 C.3   229  LEU229      0.0001
     79  CD2       49.9860   17.3010   53.2440 C.3   229  LEU229      0.0001
@<TRIPOS>BOND
     1    32    33    1
     2    33    34    1
     3    34    35    2
     4    42    40    1
     5    40    37    1
     6    40    41    1
     7    36    37    1
     8     1     2    1
     9    37    38    1
    10     5     2    1
    11     5     6    1
    12     2     3    1
    13    43    38   am
    14    43    44    1
    15    38    39    2
    16     8     6    1
    17     3     4    2
    18     6     7    1
    19    47    44    1
    20    44    45    1
    21    45    46    2
    22    54    52    1
    23    48    49    1
    24    52    49    1
    25    52    53    1
    26    49    50    1
    27    55    50   am
    28    55    56    1
    29    50    51    2
    30    56    57    1
    31    57    58    2
    32    31    29   ar
    33    31    30   ar
    34    66    64    1
    35    29    27   ar
    36    30    28   ar
    37    64    63    1
    38    59    60    1
    39    27    26   ar
    40    28    26   ar
    41    63    60    1
    42    63    65    1
    43    24    23    2
    44    60    61    1
    45    26    25    1
    46    23    22    1
    47    67    61   am
    48    67    68    1
    49    61    62    2
    50    71    68    1
    51    25    22    1
    52    22    21    1
    53    68    69    1
    54    69    70    2
    55    17    16    2
    56    78    77    1
    57    72    73    1
    58    77    79    1
    59    77    76    1
    60    12    11    2
    61    16    15    1
    62    76    73    1
    63    15    18    1
    64    15    14    1
    65    73    74    1
    66    18    20    1
    67    18    19    1
    68    11    14   am
    69    11    10    1
    70    74    75    2
    71    10    13    1
    72    10     9    1
