@<TRIPOS>MOLECULE
tmp/3ddlB00.pdb
 77 68 0 0 0
SMALL
GASTEIGER

@<TRIPOS>ATOM
      1  N         44.3450   50.5550   28.1920 N.3   180  ARG180     -0.1245
      2  CA        43.5940   50.3030   29.4100 C.3   180  ARG180      0.1563
      3  C         43.9400   49.0000   30.1210 C.2   180  ARG180      0.2260
      4  O         44.0210   48.9610   31.3520 O.2   180  ARG180     -0.2867
      5  CB        42.0840   50.3210   29.1480 C.3   180  ARG180      0.0307
      6  CG        41.2750   49.9320   30.4020 C.3   180  ARG180      0.0489
      7  CD        40.0310   50.7940   30.5690 C.3   180  ARG180      0.2205
      8  NE        39.4390   50.7090   31.9090 N.pl3 180  ARG180     -0.0865
      9  CZ        40.0670   51.0490   33.0330 C.cat 180  ARG180      0.5346
     10  NH1       41.3190   51.4950   32.9920 N.pl3 180  ARG180      0.1354
     11  NH2       39.4370   50.9630   34.1990 N.pl3 180  ARG180      0.1354
     12  N         45.6010   48.3610   33.8620 N.3   184  LEU184     -0.1245
     13  CA        44.9990   47.5370   34.9100 C.3   184  LEU184      0.1561
     14  C         45.9850   46.4540   35.3780 C.2   184  LEU184      0.2260
     15  O         46.1080   46.1980   36.5730 O.2   184  LEU184     -0.2867
     16  CB        43.7030   46.8970   34.3980 C.3   184  LEU184      0.0270
     17  CG        42.5960   47.8940   34.0020 C.3   184  LEU184      0.0019
     18  CD1       41.3910   47.1480   33.4520 C.3   184  LEU184      0.0001
     19  CD2       42.1910   48.7330   35.2010 C.3   184  LEU184      0.0001
     20  N         49.6610   46.4370   43.2310 N.3   191  LEU191     -0.1245
     21  CA        48.8800   46.1240   44.4170 C.3   191  LEU191      0.1561
     22  C         49.4980   44.8880   45.0790 C.2   191  LEU191      0.2260
     23  O         49.5700   44.8000   46.3020 O.2   191  LEU191     -0.2867
     24  CB        47.4130   45.8350   44.0330 C.3   191  LEU191      0.0270
     25  CG        46.4420   45.5330   45.1930 C.3   191  LEU191      0.0019
     26  CD1       46.3870   46.7240   46.1730 C.3   191  LEU191      0.0001
     27  CD2       45.0330   45.2420   44.6440 C.3   191  LEU191      0.0001
     28  N         44.8760   44.0490   62.8990 N.3   219  VAL219     -0.1245
     29  CA        44.3300   45.0380   61.9880 C.3   219  VAL219      0.1561
     30  C         45.1460   45.1770   60.7110 C.2   219  VAL219      0.2260
     31  O         44.5780   45.3190   59.6240 O.2   219  VAL219     -0.2867
     32  CB        44.2210   46.3980   62.6500 C.3   219  VAL219      0.0252
     33  CG1       44.0390   47.4620   61.5850 C.3   219  VAL219      0.0019
     34  CG2       43.0470   46.3900   63.6350 C.3   219  VAL219      0.0019
     35  N         43.8440   44.0600   56.8510 N.3   223  ILE223     -0.1245
     36  CA        43.7290   45.0180   55.7660 C.3   223  ILE223      0.1561
     37  C         44.5190   44.4560   54.5800 C.2   223  ILE223      0.2260
     38  O         44.0550   44.5090   53.4360 O.2   223  ILE223     -0.2867
     39  CB        44.3180   46.4000   56.1860 C.3   223  ILE223      0.0252
     40  CG1       43.3400   47.0990   57.1420 C.3   223  ILE223      0.0019
     41  CG2       44.6660   47.2460   54.9400 C.3   223  ILE223      0.0019
     42  CD1       43.9680   48.2490   57.9710 C.3   223  ILE223      0.0001
     43  N         42.8630   43.4470   50.9180 N.3   227  LEU227     -0.1245
     44  CA        43.3150   44.1010   49.6860 C.3   227  LEU227      0.1561
     45  C         44.0090   43.1190   48.7320 C.2   227  LEU227      0.2260
     46  O         43.8300   43.1960   47.5300 O.2   227  LEU227     -0.2867
     47  CB        44.2590   45.2620   50.0090 C.3   227  LEU227      0.0270
     48  CG        43.7090   46.4960   50.7540 C.3   227  LEU227      0.0019
     49  CD1       44.8470   47.5090   50.9280 C.3   227  LEU227      0.0001
     50  CD2       42.5650   47.1290   49.9640 C.3   227  LEU227      0.0001
     51  N         40.1550   42.9760   46.9930 N.3   231  GLY231     -0.1225
     52  CA        40.4190   44.1450   46.1600 C.3   231  GLY231      0.1811
     53  C         41.1660   43.7330   44.9010 C.2   231  GLY231      0.2280
     54  O         40.8660   44.1850   43.8070 O.2   231  GLY231     -0.2866
     55  N         38.9610   42.0940   42.4010 N.3   234  VAL234     -0.1231
     56  CA        38.1860   43.0170   41.5910 C.3   234  VAL234      0.1692
     57  C         38.9890   43.5600   40.4040 C.2   234  VAL234      0.2591
     58  O         38.4200   43.7960   39.3290 O.2   234  VAL234     -0.2718
     59  CB        37.6500   44.2060   42.4390 C.3   234  VAL234      0.0266
     60  CG1       36.9780   45.2280   41.5320 C.3   234  VAL234      0.0020
     61  CG2       36.6460   43.6990   43.4680 C.3   234  VAL234      0.0020
     62  N         40.2950   43.7850   40.6070 N.am  235  LEU235     -0.1980
     63  CA        41.1510   44.2580   39.5260 C.3   235  LEU235      0.1596
     64  C         41.2780   43.1480   38.4800 C.2   235  LEU235      0.2287
     65  O         41.3270   43.4120   37.2720 O.2   235  LEU235     -0.2864
     66  CB        42.5680   44.6150   40.0370 C.3   235  LEU235      0.0297
     67  CG        42.8010   45.9760   40.6850 C.3   235  LEU235      0.0022
     68  CD1       44.3240   46.2190   40.8870 C.3   235  LEU235      0.0001
     69  CD2       42.1960   47.0550   39.7580 C.3   235  LEU235      0.0001
     70  N         38.1630   43.1670   36.3660 N.3   238  ASN238     -0.1240
     71  CA        38.1220   44.2460   35.3960 C.3   238  ASN238      0.1653
     72  C         39.0500   44.0030   34.2120 C.2   238  ASN238      0.2266
     73  O         38.7570   44.4300   33.0960 O.2   238  ASN238     -0.2867
     74  CB        38.4080   45.6040   36.0750 C.3   238  ASN238      0.1155
     75  CG        37.1730   46.1440   36.8330 C.2   238  ASN238      0.2627
     76  OD1       37.0950   46.0750   38.0610 O.2   238  ASN238     -0.2716
     77  ND2       36.2040   46.6460   36.0910 N.am  238  ASN238     -0.0877
@<TRIPOS>BOND
     1     1     2    1
     2     5     2    1
     3     5     6    1
     4     2     3    1
     5     3     4    2
     6     6     7    1
     7     7     8    1
     8     8     9    2
     9    10     9    1
    10     9    11    1
    11    73    72    2
    12    18    17    1
    13    12    13    1
    14    17    16    1
    15    17    19    1
    16    72    71    1
    17    16    13    1
    18    13    14    1
    19    14    15    2
    20    71    74    1
    21    71    70    1
    22    74    75    1
    23    77    75   am
    24    75    76    2
    25    65    64    2
    26    64    63    1
    27    58    57    2
    28    63    66    1
    29    63    62    1
    30    69    67    1
    31    66    67    1
    32    57    62   am
    33    57    56    1
    34    67    68    1
    35    60    59    1
    36    56    55    1
    37    56    59    1
    38    59    61    1
    39    20    21    1
    40    54    53    2
    41    24    21    1
    42    24    25    1
    43    21    22    1
    44    27    25    1
    45    53    52    1
    46    22    23    2
    47    25    26    1
    48    52    51    1
    49    46    45    2
    50    45    44    1
    51    44    47    1
    52    44    43    1
    53    50    48    1
    54    47    48    1
    55    48    49    1
    56    38    37    2
    57    37    36    1
    58    41    39    1
    59    36    39    1
    60    36    35    1
    61    39    40    1
    62    40    42    1
    63    31    30    2
    64    30    29    1
    65    33    32    1
    66    29    32    1
    67    29    28    1
    68    32    34    1
