@<TRIPOS>MOLECULE
tmp/3ddlA06.pdb
 184 178 0 0 0
SMALL
GASTEIGER

@<TRIPOS>ATOM
      1  N         59.2930    3.9260   44.7340 N.3    91  TYR91      -0.1241
      2  CA        59.0850    2.6480   45.3960 C.3    91  TYR91       0.1605
      3  C         60.2120    2.3540   46.4030 C.2    91  TYR91       0.2264
      4  O         59.9430    1.9110   47.5110 O.2    91  TYR91      -0.2867
      5  CB        58.9850    1.5180   44.3640 C.3    91  TYR91       0.0534
      6  CG        58.7840    0.1730   45.0160 C.ar   91  TYR91      -0.0201
      7  CD1       57.5170   -0.2760   45.3660 C.ar   91  TYR91      -0.0009
      8  CD2       59.8810   -0.6220   45.3480 C.ar   91  TYR91      -0.0009
      9  CE1       57.3490   -1.4900   46.0410 C.ar   91  TYR91       0.0417
     10  CE2       59.7290   -1.8220   46.0090 C.ar   91  TYR91       0.0417
     11  CZ        58.4650   -2.2520   46.3550 C.ar   91  TYR91       0.1957
     12  OH        58.3450   -3.4530   47.0090 O.3    91  TYR91      -0.2866
     13  N         59.7000    4.3980   49.4250 N.3    94  TRP94      -0.1241
     14  CA        58.7130    3.8440   50.3620 C.3    94  TRP94       0.1605
     15  C         59.3250    2.7570   51.2520 C.2    94  TRP94       0.2264
     16  O         59.1320    2.7430   52.4670 O.2    94  TRP94      -0.2867
     17  CB        57.5190    3.2230   49.6140 C.3    94  TRP94       0.0550
     18  CG        56.7050    4.1760   48.7720 C.ar   94  TRP94       0.0003
     19  CD1       56.8460    5.5380   48.6910 C.ar   94  TRP94       0.0946
     20  CD2       55.6450    3.8290   47.8670 C.ar   94  TRP94       0.0152
     21  NE1       55.9490    6.0550   47.7900 N.ar   94  TRP94      -0.2442
     22  CE2       55.1960    5.0340   47.2680 C.ar   94  TRP94       0.0810
     23  CE3       55.0280    2.6180   47.5040 C.ar   94  TRP94       0.0012
     24  CZ2       54.1610    5.0630   46.3130 C.ar   94  TRP94       0.0191
     25  CZ3       53.9950    2.6480   46.5560 C.ar   94  TRP94       0.0001
     26  CH2       53.5750    3.8630   45.9760 C.ar   94  TRP94       0.0015
     27  N         61.5390    4.5630   53.9080 N.3    97  THR97      -0.1203
     28  CA        60.9080    5.5420   54.7930 C.3    97  THR97       0.1994
     29  C         59.6790    5.0920   55.5930 C.2    97  THR97       0.2617
     30  O         59.4810    5.5650   56.7040 O.2    97  THR97      -0.2717
     31  CB        60.4990    6.7920   54.0090 C.3    97  THR97       0.1784
     32  OG1       59.5540    6.4230   52.9960 O.3    97  THR97      -0.2211
     33  CG2       61.7660    7.4570   53.3360 C.3    97  THR97       0.0376
     34  N         58.8420    4.2160   55.0390 N.am   98  VAL98      -0.1979
     35  CA        57.6510    3.7910   55.7910 C.3    98  VAL98       0.1595
     36  C         57.9270    3.1470   57.1540 C.2    98  VAL98       0.2287
     37  O         57.1630    3.3250   58.1050 O.2    98  VAL98      -0.2864
     38  CB        56.7570    2.8910   54.9220 C.3    98  VAL98       0.0276
     39  CG1       55.6940    2.2760   55.7580 C.3    98  VAL98       0.0022
     40  CG2       56.0910    3.7290   53.8570 C.3    98  VAL98       0.0022
     41  N         58.6980    5.9370   59.5310 N.3   101  LEU101     -0.1245
     42  CA        57.5310    6.7380   59.8590 C.3   101  LEU101      0.1561
     43  C         56.8140    6.0860   61.0490 C.2   101  LEU101      0.2260
     44  O         56.3430    6.7920   61.9540 O.2   101  LEU101     -0.2867
     45  CB        56.6180    6.8820   58.6170 C.3   101  LEU101      0.0270
     46  CG        57.2030    7.7280   57.4410 C.3   101  LEU101      0.0019
     47  CD1       56.2810    7.5930   56.2210 C.3   101  LEU101      0.0001
     48  CD2       57.3830    9.2210   57.8370 C.3   101  LEU101      0.0001
     49  N         55.0340   -4.8270   53.9030 N.3   130  MET130     -0.1230
     50  CA        53.8950   -4.3080   53.1130 C.3   130  MET130      0.1702
     51  C         54.4160   -3.8140   51.7660 C.2   130  MET130      0.2592
     52  O         53.8440   -4.1020   50.6910 O.2   130  MET130     -0.2718
     53  CB        53.2260   -3.1610   53.9060 C.3   130  MET130      0.0401
     54  CG        52.1320   -2.3730   53.1590 C.3   130  MET130      0.0596
     55  SD        51.5810   -0.9800   54.1640 S.3   130  MET130     -0.1393
     56  CE        53.0110    0.2050   53.8760 C.3   130  MET130      0.0692
     57  N         55.5390   -3.0950   51.8180 N.am  131  ILE131     -0.1980
     58  CA        56.1470   -2.5680   50.6130 C.3   131  ILE131      0.1595
     59  C         56.7530   -3.7000   49.7970 C.2   131  ILE131      0.2287
     60  O         56.6190   -3.7310   48.5930 O.2   131  ILE131     -0.2864
     61  CB        57.2380   -1.5140   50.9510 C.3   131  ILE131      0.0276
     62  CG1       56.6340   -0.3500   51.7590 C.3   131  ILE131      0.0022
     63  CG2       57.8380   -0.9880   49.6560 C.3   131  ILE131      0.0022
     64  CD1       55.4760    0.3910   51.0520 C.3   131  ILE131      0.0001
     65  N         54.1000   -5.5150   47.9490 N.3   134  GLY134     -0.1225
     66  CA        53.4860   -4.7540   46.8710 C.3   134  GLY134      0.1811
     67  C         54.3020   -4.8010   45.5860 C.2   134  GLY134      0.2280
     68  O         53.7620   -4.6800   44.4790 O.2   134  GLY134     -0.2866
     69  N         53.2470   -4.0430   41.5530 N.3   138  GLU138     -0.1245
     70  CA        53.5290   -2.7790   40.8970 C.3   138  GLU138      0.1567
     71  C         54.3100   -2.9310   39.5890 C.2   138  GLU138      0.2260
     72  O         54.1770   -2.0990   38.6930 O.2   138  GLU138     -0.2867
     73  CB        54.2690   -1.8320   41.8500 C.3   138  GLU138      0.0388
     74  CG        53.6400   -0.4250   41.9460 C.3   138  GLU138      0.1160
     75  CD        53.0080   -0.1610   43.3000 C.2   138  GLU138      0.3649
     76  OE1       53.2100   -0.9930   44.2080 O.co2 138  GLU138     -0.2457
     77  OE2       52.3220    0.8720   43.4710 O.co2 138  GLU138     -0.2457
     78  N         48.3580   -7.1840   45.7600 N.3   153  GLY153     -0.1225
     79  CA        47.7290   -6.0770   46.4730 C.3   153  GLY153      0.1811
     80  C         47.0500   -6.6240   47.7220 C.2   153  GLY153      0.2280
     81  O         47.0410   -6.0060   48.8030 O.2   153  GLY153     -0.2866
     82  N         49.7640   -7.6870   50.2770 N.3   156  SER156     -0.1202
     83  CA        50.3260   -6.4760   50.8890 C.3   156  SER156      0.2020
     84  C         49.3540   -5.8020   51.8630 C.2   156  SER156      0.2619
     85  O         49.7660   -5.2350   52.8640 O.2   156  SER156     -0.2717
     86  CB        50.7650   -5.4780   49.8050 C.3   156  SER156      0.2103
     87  OG        51.2090   -4.2670   50.3920 O.3   156  SER156     -0.2182
     88  N         48.0560   -5.8860   51.5820 N.am  157  THR157     -0.1952
     89  CA        47.0410   -5.2850   52.4630 C.3   157  THR157      0.1897
     90  C         47.0510   -5.9550   53.8390 C.2   157  THR157      0.2313
     91  O         46.6810   -5.3430   54.8380 O.2   157  THR157     -0.2863
     92  CB        45.6060   -5.3990   51.8250 C.3   157  THR157      0.1794
     93  OG1       45.5620   -4.6490   50.6040 O.3   157  THR157     -0.2208
     94  CG2       44.5160   -4.8770   52.7910 C.3   157  THR157      0.0378
     95  N         49.3490   -4.1260   56.1640 N.3   160  PHE160     -0.1241
     96  CA        48.8080   -2.7720   56.2470 C.3   160  PHE160      0.1605
     97  C         47.6620   -2.6980   57.2690 C.2   160  PHE160      0.2264
     98  O         47.6970   -1.8610   58.1770 O.2   160  PHE160     -0.2867
     99  CB        48.3280   -2.3080   54.8530 C.3   160  PHE160      0.0534
    100  CG        47.7120   -0.9300   54.8380 C.ar  160  PHE160     -0.0203
    101  CD1       48.3450    0.1400   55.4630 C.ar  160  PHE160     -0.0042
    102  CD2       46.4880   -0.7050   54.2080 C.ar  160  PHE160     -0.0042
    103  CE1       47.7660    1.4130   55.4690 C.ar  160  PHE160     -0.0003
    104  CE2       45.8980    0.5780   54.2030 C.ar  160  PHE160     -0.0003
    105  CZ        46.5340    1.6290   54.8320 C.ar  160  PHE160     -0.0000
    106  N         48.3840    7.1830   53.9970 N.3   197  TRP197     -0.1241
    107  CA        48.7210    5.8210   53.6250 C.3   197  TRP197      0.1605
    108  C         47.5690    5.2010   52.8150 C.2   197  TRP197      0.2264
    109  O         47.7910    4.4520   51.8590 O.2   197  TRP197     -0.2867
    110  CB        49.0250    4.9900   54.8810 C.3   197  TRP197      0.0550
    111  CG        50.3500    5.3410   55.5390 C.ar  197  TRP197      0.0003
    112  CD1       50.8880    6.5890   55.7030 C.ar  197  TRP197      0.0946
    113  CD2       51.2470    4.4330   56.1800 C.ar  197  TRP197      0.0152
    114  NE1       52.0620    6.5150   56.4160 N.ar  197  TRP197     -0.2442
    115  CE2       52.3110    5.2020   56.7170 C.ar  197  TRP197      0.0810
    116  CE3       51.2610    3.0370   56.3550 C.ar  197  TRP197      0.0012
    117  CZ2       53.3710    4.6270   57.4140 C.ar  197  TRP197      0.0191
    118  CZ3       52.3230    2.4640   57.0530 C.ar  197  TRP197      0.0001
    119  CH2       53.3600    3.2610   57.5700 C.ar  197  TRP197      0.0015
    120  N         47.6380    5.3310   48.8170 N.3   200  TYR200     -0.1228
    121  CA        48.4220    4.4130   48.0110 C.3   200  TYR200      0.1721
    122  C         47.6890    3.1470   47.5040 C.2   200  TYR200      0.2437
    123  O         47.7300    2.8570   46.3010 O.2   200  TYR200     -0.2733
    124  CB        49.7240    4.0820   48.7560 C.3   200  TYR200      0.0547
    125  CG        50.5500    5.3260   49.0800 C.ar  200  TYR200     -0.0200
    126  CD1       51.4200    5.8950   48.1340 C.ar  200  TYR200     -0.0009
    127  CD2       50.4360    5.9570   50.3190 C.ar  200  TYR200     -0.0009
    128  CE1       52.1520    7.0600   48.4320 C.ar  200  TYR200      0.0417
    129  CE2       51.1580    7.1210   50.6200 C.ar  200  TYR200      0.0417
    130  CZ        52.0160    7.6630   49.6740 C.ar  200  TYR200      0.1957
    131  OH        52.7320    8.7980   50.0120 O.3   200  TYR200     -0.2866
    132  N         47.0490    2.3590   48.3920 N.am  201  PRO201     -0.2729
    133  CA        46.3740    1.1910   47.7940 C.3   201  PRO201      0.1401
    134  C         45.1920    1.6200   46.9030 C.2   201  PRO201      0.2269
    135  O         44.7910    0.8970   45.9970 O.2   201  PRO201     -0.2865
    136  CB        45.9460    0.3570   49.0110 C.3   201  PRO201      0.0296
    137  CG        45.8350    1.3730   50.1320 C.3   201  PRO201      0.0237
    138  CD        47.0360    2.2900   49.8620 C.3   201  PRO201      0.0939
    139  N         46.6930    2.3270   43.6810 N.3   204  TYR204     -0.1241
    140  CA        47.1340    1.0320   43.1630 C.3   204  TYR204      0.1605
    141  C         46.0080    0.3580   42.3740 C.2   204  TYR204      0.2264
    142  O         46.2410   -0.2490   41.3180 O.2   204  TYR204     -0.2867
    143  CB        47.5170    0.1240   44.3360 C.3   204  TYR204      0.0534
    144  CG        48.0040   -1.2570   43.9680 C.ar  204  TYR204     -0.0201
    145  CD1       49.3500   -1.4870   43.6940 C.ar  204  TYR204     -0.0009
    146  CD2       47.1260   -2.3580   43.9500 C.ar  204  TYR204     -0.0009
    147  CE1       49.8200   -2.7680   43.4200 C.ar  204  TYR204      0.0417
    148  CE2       47.5910   -3.6610   43.6670 C.ar  204  TYR204      0.0417
    149  CZ        48.9450   -3.8530   43.4030 C.ar  204  TYR204      0.1957
    150  OH        49.4380   -5.1090   43.1060 O.3   204  TYR204     -0.2866
    151  N         50.6270   11.0730   44.0070 N.3   223  TYR223     -0.1241
    152  CA        51.6350   10.4020   44.8290 C.3   223  TYR223      0.1605
    153  C         52.5380   11.4070   45.5250 C.2   223  TYR223      0.2264
    154  O         52.9470   11.1920   46.6680 O.2   223  TYR223     -0.2867
    155  CB        52.5290    9.4780   43.9870 C.3   223  TYR223      0.0534
    156  CG        51.9220    8.1370   43.6630 C.ar  223  TYR223     -0.0201
    157  CD1       51.3500    7.3500   44.6630 C.ar  223  TYR223     -0.0009
    158  CD2       51.9410    7.6400   42.3530 C.ar  223  TYR223     -0.0009
    159  CE1       50.8000    6.0880   44.3680 C.ar  223  TYR223      0.0417
    160  CE2       51.4140    6.3930   42.0460 C.ar  223  TYR223      0.0417
    161  CZ        50.8430    5.6230   43.0560 C.ar  223  TYR223      0.1957
    162  OH        50.3120    4.4010   42.7470 O.3   223  TYR223     -0.2866
    163  N         53.1000   11.8120   49.4380 N.3   227  ASP227     -0.1239
    164  CA        54.4360   11.6620   50.0230 C.3   227  ASP227      0.1674
    165  C         54.7720   12.8850   50.8950 C.2   227  ASP227      0.2266
    166  O         55.2860   12.7350   51.9930 O.2   227  ASP227     -0.2867
    167  CB        55.5180   11.5500   48.9310 C.3   227  ASP227      0.1410
    168  CG        55.5450   10.2010   48.2180 C.2   227  ASP227      0.3668
    169  OD1       54.9550    9.1930   48.6680 O.co2 227  ASP227     -0.2456
    170  OD2       56.1970   10.1490   47.1620 O.co2 227  ASP227     -0.2456
    171  N         52.6090   12.6450   54.0710 N.3   230  ALA230     -0.1231
    172  CA        52.9420   11.5130   54.9240 C.3   230  ALA230      0.1694
    173  C         54.3230   11.5900   55.5770 C.2   230  ALA230      0.2591
    174  O         54.5760   10.8810   56.5690 O.2   230  ALA230     -0.2718
    175  CB        52.8280   10.2130   54.1150 C.3   230  ALA230      0.0304
    176  N         55.2080   12.4400   55.0440 N.am  231  LYS231     -0.1980
    177  CA        56.5790   12.5530   55.5750 C.3   231  LYS231      0.1596
    178  C         56.9660   13.9080   56.1830 C.2   231  LYS231      0.2287
    179  O         57.3920   13.9650   57.3410 O.2   231  LYS231     -0.2864
    180  CB        57.5810   12.1730   54.4780 C.3   231  LYS231      0.0298
    181  CG        57.3070   10.7940   53.9480 C.3   231  LYS231      0.0038
    182  CD        58.4000   10.2570   53.0540 C.3   231  LYS231      0.0206
    183  CE        57.9520   10.0830   51.6430 C.3   231  LYS231      0.1093
    184  NZ        57.2170    8.8570   51.3100 N.3   231  LYS231     -0.1314
@<TRIPOS>BOND
     1    72    71    2
     2    71    70    1
     3    70    69    1
     4    70    73    1
     5   142   141    2
     6    73    74    1
     7    74    75    1
     8   160   158   ar
     9   160   161   ar
    10   158   156   ar
    11   141   140    1
    12   162   161    1
    13   161   159   ar
    14   150   149    1
    15   140   139    1
    16   140   143    1
    17    75    77   ar
    18    75    76   ar
    19   149   147   ar
    20   149   148   ar
    21   147   145   ar
    22   156   155    1
    23   156   157   ar
    24   148   146   ar
    25   145   144   ar
    26   146   144   ar
    27   144   143    1
    28   155   152    1
    29   151   152    1
    30     5     6    1
    31     5     2    1
    32   159   157   ar
    33    68    67    2
    34     1     2    1
    35   152   153    1
    36     6     8   ar
    37     6     7   ar
    38     8    10   ar
    39     7     9   ar
    40     2     3    1
    41   153   154    2
    42    67    66    1
    43    78    79    1
    44    26    24   ar
    45    26    25   ar
    46   135   134    2
    47    10    11   ar
    48     9    11   ar
    49   123   122    2
    50    24    22   ar
    51    11    12    1
    52     3     4    2
    53    79    80    1
    54    25    23   ar
    55    66    65    1
    56   134   133    1
    57   170   168   ar
    58    22    21   ar
    59    22    20   ar
    60    23    20   ar
    61   122   121    1
    62   122   132   am
    63    80    81    2
    64    21    19   ar
    65   133   132    1
    66   133   136    1
    67    20    18   ar
    68   121   124    1
    69   121   120    1
    70   126   128   ar
    71   126   125   ar
    72   168   169   ar
    73   168   167    1
    74   132   138    1
    75   128   130   ar
    76    60    59    2
    77    19    18   ar
    78   124   125    1
    79    18    17    1
    80   167   164    1
    81   136   137    1
    82   125   127   ar
    83    13    14    1
    84   163   164    1
    85    17    14    1
    86    63    61    1
    87   130   131    1
    88   130   129   ar
    89    59    58    1
    90    86    87    1
    91    86    83    1
    92   138   137    1
    93   164   165    1
    94    82    83    1
    95   127   129   ar
    96    14    15    1
    97    93    92    1
    98    58    61    1
    99    58    57    1
   100    52    51    2
   101    83    84    1
   102   165   166    2
   103    61    62    1
   104    64    62    1
   105    15    16    2
   106   184   183    1
   107    88    84   am
   108    88    89    1
   109   183   182    1
   110    51    57   am
   111    51    50    1
   112    92    89    1
   113    92    94    1
   114   109   108    2
   115    84    85    2
   116    89    90    1
   117   108   107    1
   118    32    31    1
   119   182   181    1
   120    50    49    1
   121    50    53    1
   122    54    53    1
   123    54    55    1
   124    33    31    1
   125   107   106    1
   126   107   110    1
   127    90    91    2
   128    40    38    1
   129    56    55    1
   130    27    28    1
   131   181   180    1
   132    31    28    1
   133   171   172    1
   134   175   172    1
   135   104   102   ar
   136   104   105   ar
   137   102   100   ar
   138   180   177    1
   139    28    29    1
   140   105   103   ar
   141   100    99    1
   142   100   101   ar
   143    99    96    1
   144   110   111    1
   145    38    39    1
   146    38    35    1
   147   172   173    1
   148    34    29   am
   149    34    35    1
   150   176   177    1
   151   176   173   am
   152   101   103   ar
   153   111   112   ar
   154   111   113   ar
   155   177   178    1
   156   173   174    2
   157    29    30    2
   158   112   114   ar
   159    35    36    1
   160    95    96    1
   161   113   116   ar
   162   113   115   ar
   163   178   179    2
   164    47    46    1
   165    96    97    1
   166   116   118   ar
   167   114   115   ar
   168   115   117   ar
   169   118   119   ar
   170    36    37    2
   171    97    98    2
   172   117   119   ar
   173    46    48    1
   174    46    45    1
   175    45    42    1
   176    41    42    1
   177    42    43    1
   178    43    44    2
