@<TRIPOS>MOLECULE
tmp/3ddlB03.pdb
 113 109 0 0 0
SMALL
GASTEIGER

@<TRIPOS>ATOM
      1  N         54.8940   27.6330   37.6250 N.3   121  LYS121     -0.1245
      2  CA        56.1050   28.1510   38.2480 C.3   121  LYS121      0.1561
      3  C         55.7850   29.1490   39.3740 C.2   121  LYS121      0.2260
      4  O         56.3070   29.0260   40.4660 O.2   121  LYS121     -0.2867
      5  CB        57.0000   28.8200   37.2010 C.3   121  LYS121      0.0271
      6  CG        58.2640   29.4310   37.7970 C.3   121  LYS121      0.0035
      7  CD        59.0840   30.1070   36.7120 C.3   121  LYS121      0.0206
      8  CE        59.5870   29.1070   35.6860 C.3   121  LYS121      0.1093
      9  NZ        60.4590   29.7730   34.6780 N.3   121  LYS121     -0.1314
     10  N         56.1980   28.5720   43.5570 N.3   125  LEU125     -0.1245
     11  CA        57.1580   29.4720   44.2130 C.3   125  LEU125      0.1561
     12  C         56.3970   30.1350   45.3640 C.2   125  LEU125      0.2260
     13  O         56.9310   30.3210   46.4490 O.2   125  LEU125     -0.2867
     14  CB        57.6750   30.5720   43.2480 C.3   125  LEU125      0.0270
     15  CG        58.8340   30.2130   42.2950 C.3   125  LEU125      0.0019
     16  CD1       59.0330   31.3210   41.2300 C.3   125  LEU125      0.0001
     17  CD2       60.1420   30.0090   43.1130 C.3   125  LEU125      0.0001
     18  N         55.9810   27.5600   48.1480 N.3   128  LEU128     -0.1245
     19  CA        57.2500   27.3310   48.8330 C.3   128  LEU128      0.1561
     20  C         57.5970   28.5020   49.7560 C.2   128  LEU128      0.2260
     21  O         58.1580   28.3100   50.8290 O.2   128  LEU128     -0.2867
     22  CB        58.3730   27.1360   47.8060 C.3   128  LEU128      0.0270
     23  CG        59.7750   26.9060   48.3770 C.3   128  LEU128      0.0019
     24  CD1       59.8140   25.5500   49.1470 C.3   128  LEU128      0.0001
     25  CD2       60.8040   26.9270   47.2140 C.3   128  LEU128      0.0001
     26  N         58.4700   27.8800   53.6220 N.3   132  LEU132     -0.1245
     27  CA        59.7250   28.3070   54.2550 C.3   132  LEU132      0.1561
     28  C         59.5080   29.2810   55.4330 C.2   132  LEU132      0.2260
     29  O         60.2720   29.2950   56.3910 O.2   132  LEU132     -0.2867
     30  CB        60.6460   28.9690   53.2150 C.3   132  LEU132      0.0270
     31  CG        61.1540   28.0320   52.1260 C.3   132  LEU132      0.0019
     32  CD1       61.9720   28.8230   51.0890 C.3   132  LEU132      0.0001
     33  CD2       62.0050   26.9210   52.7850 C.3   132  LEU132      0.0001
     34  N         64.9510   31.6360   58.4350 N.3   151  TRP151     -0.1241
     35  CA        63.7840   31.2510   57.6400 C.3   151  TRP151      0.1605
     36  C         63.1440   32.4180   56.8950 C.2   151  TRP151      0.2264
     37  O         62.5500   32.2170   55.8420 O.2   151  TRP151     -0.2867
     38  CB        62.7660   30.5550   58.5190 C.3   151  TRP151      0.0550
     39  CG        63.3000   29.2490   58.9700 C.ar  151  TRP151      0.0003
     40  CD1       63.8210   28.9550   60.1950 C.ar  151  TRP151      0.0946
     41  CD2       63.4820   28.0840   58.1630 C.ar  151  TRP151      0.0152
     42  NE1       64.3260   27.6790   60.1950 N.ar  151  TRP151     -0.2442
     43  CE2       64.1320   27.1230   58.9600 C.ar  151  TRP151      0.0810
     44  CE3       63.1590   27.7600   56.8410 C.ar  151  TRP151      0.0012
     45  CZ2       64.4730   25.8450   58.4760 C.ar  151  TRP151      0.0191
     46  CZ3       63.4960   26.4910   56.3550 C.ar  151  TRP151      0.0001
     47  CH2       64.1480   25.5510   57.1780 C.ar  151  TRP151      0.0015
     48  N         65.3780   32.6890   53.9240 N.3   154  LEU154     -0.1245
     49  CA        65.1050   31.5920   52.9820 C.3   154  LEU154      0.1561
     50  C         63.7740   31.8060   52.2420 C.2   154  LEU154      0.2260
     51  O         63.6950   31.6300   51.0220 O.2   154  LEU154     -0.2867
     52  CB        65.1000   30.2460   53.7220 C.3   154  LEU154      0.0270
     53  CG        66.4480   29.7210   54.2630 C.3   154  LEU154      0.0019
     54  CD1       66.2460   28.3840   54.9810 C.3   154  LEU154      0.0001
     55  CD2       67.4510   29.5420   53.1120 C.3   154  LEU154      0.0001
     56  N         63.7260   34.2420   49.2470 N.3   157  ILE157     -0.1231
     57  CA        64.2590   33.7980   47.9520 C.3   157  ILE157      0.1678
     58  C         63.1550   33.5740   46.9050 C.2   157  ILE157      0.2434
     59  O         63.1630   34.2310   45.8530 O.2   157  ILE157     -0.2733
     60  CB        65.1580   32.5400   48.1270 C.3   157  ILE157      0.0265
     61  CG1       66.4130   32.9220   48.9290 C.3   157  ILE157      0.0019
     62  CG2       65.5990   31.9990   46.7630 C.3   157  ILE157      0.0020
     63  CD1       67.2920   31.7250   49.3830 C.3   157  ILE157      0.0001
     64  N         62.1640   32.6870   47.1790 N.am  158  PRO158     -0.2729
     65  CA        61.1170   32.4990   46.1610 C.3   158  PRO158      0.1401
     66  C         60.2790   33.7650   45.9450 C.2   158  PRO158      0.2269
     67  O         59.7880   34.0170   44.8350 O.2   158  PRO158     -0.2865
     68  CB        60.3060   31.3040   46.6970 C.3   158  PRO158      0.0296
     69  CG        60.5300   31.3500   48.1660 C.3   158  PRO158      0.0237
     70  CD        61.9960   31.7260   48.2820 C.3   158  PRO158      0.0939
     71  N         61.9390   35.9370   43.5490 N.3   161  TRP161     -0.1241
     72  CA        61.8130   35.2820   42.2550 C.3   161  TRP161      0.1605
     73  C         60.4520   35.6400   41.6680 C.2   161  TRP161      0.2264
     74  O         60.3360   35.9480   40.4780 O.2   161  TRP161     -0.2867
     75  CB        61.9460   33.7580   42.3800 C.3   161  TRP161      0.0550
     76  CG        63.3510   33.2710   42.2600 C.ar  161  TRP161      0.0003
     77  CD1       64.1060   32.7000   43.2420 C.ar  161  TRP161      0.0946
     78  CD2       64.1860   33.3160   41.0870 C.ar  161  TRP161      0.0152
     79  NE1       65.3490   32.3850   42.7550 N.ar  161  TRP161     -0.2442
     80  CE2       65.4260   32.7490   41.4370 C.ar  161  TRP161      0.0810
     81  CE3       64.0010   33.7800   39.7810 C.ar  161  TRP161      0.0012
     82  CZ2       66.4880   32.6270   40.5220 C.ar  161  TRP161      0.0191
     83  CZ3       65.0540   33.6630   38.8680 C.ar  161  TRP161      0.0001
     84  CH2       66.2830   33.0880   39.2460 C.ar  161  TRP161      0.0015
     85  N         60.6730   39.2010   40.4740 N.3   164  TYR164     -0.1227
     86  CA        61.4880   39.2530   39.2740 C.3   164  TYR164      0.1736
     87  C         60.6310   38.8890   38.0480 C.2   164  TYR164      0.2595
     88  O         60.5320   39.6560   37.0920 O.2   164  TYR164     -0.2718
     89  CB        62.6620   38.2850   39.4120 C.3   164  TYR164      0.0548
     90  CG        63.4170   38.0710   38.1200 C.ar  164  TYR164     -0.0200
     91  CD1       64.2040   39.0880   37.5670 C.ar  164  TYR164     -0.0009
     92  CD2       63.3050   36.8690   37.4240 C.ar  164  TYR164     -0.0009
     93  CE1       64.8570   38.9130   36.3490 C.ar  164  TYR164      0.0417
     94  CE2       63.9490   36.6800   36.2050 C.ar  164  TYR164      0.0417
     95  CZ        64.7250   37.7120   35.6710 C.ar  164  TYR164      0.1957
     96  OH        65.3400   37.5350   34.4520 O.3   164  TYR164     -0.2866
     97  N         59.9770   37.7310   38.0920 N.am  165  ILE165     -0.1980
     98  CA        59.1410   37.2820   36.9800 C.3   165  ILE165      0.1595
     99  C         58.0310   38.2640   36.5900 C.2   165  ILE165      0.2287
    100  O         57.8280   38.5530   35.3980 O.2   165  ILE165     -0.2864
    101  CB        58.5190   35.8890   37.2900 C.3   165  ILE165      0.0276
    102  CG1       59.6360   34.8350   37.3530 C.3   165  ILE165      0.0022
    103  CG2       57.4860   35.5260   36.2400 C.3   165  ILE165      0.0022
    104  CD1       59.2290   33.4860   37.9510 C.3   165  ILE165      0.0001
    105  N         60.3020   39.7710   33.7020 N.3   169  GLN169     -0.1245
    106  CA        59.9660   38.8240   32.6570 C.3   169  GLN169      0.1566
    107  C         58.6210   39.0140   31.9500 C.2   169  GLN169      0.2260
    108  O         58.4390   38.5150   30.8500 O.2   169  GLN169     -0.2867
    109  CB        60.0400   37.4070   33.2050 C.3   169  GLN169      0.0367
    110  CG        59.8410   36.3550   32.1410 C.3   169  GLN169      0.0905
    111  CD        59.8590   34.9560   32.7110 C.2   169  GLN169      0.2608
    112  OE1       60.7160   34.6230   33.5320 O.2   169  GLN169     -0.2717
    113  NE2       58.9110   34.1220   32.2740 N.am  169  GLN169     -0.0878
@<TRIPOS>BOND
     1   108   107    2
     2   107   106    1
     3   110   111    1
     4   110   109    1
     5   113   111   am
     6   106   109    1
     7   106   105    1
     8   111   112    2
     9    96    95    1
    10     9     8    1
    11   100    99    2
    12    95    94   ar
    13    95    93   ar
    14     8     7    1
    15    94    92   ar
    16   103   101    1
    17    93    91   ar
    18    99    98    1
    19     7     6    1
    20    98   101    1
    21    98    97    1
    22    88    87    2
    23     5     6    1
    24     5     2    1
    25   101   102    1
    26   102   104    1
    27    92    90   ar
    28    91    90   ar
    29     1     2    1
    30    87    97   am
    31    87    86    1
    32    90    89    1
    33     2     3    1
    34    83    84   ar
    35    83    81   ar
    36    84    82   ar
    37    86    89    1
    38    86    85    1
    39     3     4    2
    40    81    78   ar
    41    74    73    2
    42    82    80   ar
    43    78    80   ar
    44    78    76   ar
    45    16    15    1
    46    80    79   ar
    47    73    72    1
    48    72    75    1
    49    72    71    1
    50    76    75    1
    51    76    77   ar
    52    15    17    1
    53    15    14    1
    54    79    77   ar
    55    14    11    1
    56    10    11    1
    57    11    12    1
    58    67    66    2
    59    12    13    2
    60    59    58    2
    61    66    65    1
    62    65    68    1
    63    65    64    1
    64    68    69    1
    65    62    60    1
    66    58    64   am
    67    58    57    1
    68    64    70    1
    69    25    23    1
    70    22    23    1
    71    22    19    1
    72    57    60    1
    73    57    56    1
    74    60    61    1
    75    18    19    1
    76    69    70    1
    77    23    24    1
    78    19    20    1
    79    61    63    1
    80    20    21    2
    81    51    50    2
    82    32    31    1
    83    31    33    1
    84    31    30    1
    85    50    49    1
    86    49    52    1
    87    49    48    1
    88    55    53    1
    89    30    27    1
    90    26    27    1
    91    52    53    1
    92    27    28    1
    93    53    54    1
    94    28    29    2
    95    37    36    2
    96    46    44   ar
    97    46    47   ar
    98    44    41   ar
    99    36    35    1
   100    47    45   ar
   101    35    34    1
   102    35    38    1
   103    41    43   ar
   104    41    39   ar
   105    45    43   ar
   106    38    39    1
   107    43    42   ar
   108    39    40   ar
   109    40    42   ar
