@<TRIPOS>MOLECULE
tmp/3ddlB10.pdb
 82 77 0 0 0
SMALL
GASTEIGER

@<TRIPOS>ATOM
      1  N         40.3650   46.5500   76.4930 N.3     5  THR5       -0.1204
      2  CA        39.2480   47.4530   76.7770 C.3     5  THR5        0.1979
      3  C         38.1560   47.0960   75.7530 C.2     5  THR5        0.2460
      4  O         38.4280   46.4230   74.7470 O.2     5  THR5       -0.2732
      5  CB        39.6280   48.9180   76.5500 C.3     5  THR5        0.1783
      6  OG1       40.0140   49.0920   75.1840 O.3     5  THR5       -0.2211
      7  CG2       40.7980   49.3330   77.4570 C.3     5  THR5        0.0376
      8  N         36.9010   47.5070   76.0080 N.am    6  PRO6       -0.2717
      9  CA        35.8320   47.1940   75.0530 C.3     6  PRO6        0.1536
     10  C         36.1570   47.7460   73.6590 C.2     6  PRO6        0.2599
     11  O         35.8510   47.1380   72.6320 O.2     6  PRO6       -0.2715
     12  CB        34.6180   47.8670   75.6830 C.3     6  PRO6        0.0310
     13  CG        34.8870   47.6800   77.1590 C.3     6  PRO6        0.0237
     14  CD        36.3450   48.0860   77.2500 C.3     6  PRO6        0.0939
     15  N         36.7850   48.9080   73.6380 N.am    7  GLY7       -0.1941
     16  CA        37.1530   49.5090   72.3760 C.3     7  GLY7        0.2014
     17  C         38.1450   48.6790   71.5770 C.2     7  GLY7        0.2638
     18  O         38.0090   48.5920   70.3580 O.2     7  GLY7       -0.2714
     19  N         39.1340   48.0700   72.2430 N.am    8  GLN8       -0.1977
     20  CA        40.1520   47.2830   71.5430 C.3     8  GLN8        0.1601
     21  C         39.5770   45.9520   71.0990 C.2     8  GLN8        0.2287
     22  O         39.8230   45.4890   69.9870 O.2     8  GLN8       -0.2864
     23  CB        41.3890   47.0550   72.4470 C.3     8  GLN8        0.0394
     24  CG        42.0970   48.3440   72.8800 C.3     8  GLN8        0.0908
     25  CD        43.1330   48.1350   74.0010 C.2     8  GLN8        0.2608
     26  OE1       42.8710   47.4650   75.0030 O.2     8  GLN8       -0.2717
     27  NE2       44.3070   48.7290   73.8300 N.am    8  GLN8       -0.0878
     28  N         36.4290   45.2840   70.4860 N.3    10  SER10      -0.1202
     29  CA        35.4160   45.5370   69.4490 C.3    10  SER10       0.2020
     30  C         35.9670   46.0020   68.1320 C.2    10  SER10       0.2618
     31  O         35.3600   45.7680   67.0970 O.2    10  SER10      -0.2717
     32  CB        34.3870   46.5560   69.9350 C.3    10  SER10       0.2103
     33  OG        33.7460   46.0620   71.0900 O.3    10  SER10      -0.2182
     34  N         37.1130   46.6670   68.1700 N.am   11  LEU11      -0.1979
     35  CA        37.7280   47.1190   66.9340 C.3    11  LEU11       0.1596
     36  C         38.0860   45.8710   66.1550 C.2    11  LEU11       0.2287
     37  O         37.7680   45.7560   64.9770 O.2    11  LEU11      -0.2864
     38  CB        39.0010   47.9110   67.2100 C.3    11  LEU11       0.0297
     39  CG        39.8660   48.1180   65.9520 C.3    11  LEU11       0.0022
     40  CD1       39.1070   48.9410   64.9180 C.3    11  LEU11       0.0001
     41  CD2       41.1650   48.8430   66.3350 C.3    11  LEU11       0.0001
     42  N         36.1900   44.1950   62.8480 N.3    15  MET15      -0.1245
     43  CA        37.0890   44.1400   61.7010 C.3    15  MET15       0.1570
     44  C         37.0190   42.7070   61.1340 C.2    15  MET15       0.2261
     45  O         36.8330   42.5170   59.9380 O.2    15  MET15      -0.2867
     46  CB        38.5040   44.4630   62.1690 C.3    15  MET15       0.0387
     47  CG        39.6130   44.3020   61.1400 C.3    15  MET15       0.0595
     48  SD        39.6190   45.5900   59.9410 S.3    15  MET15      -0.1393
     49  CE        39.1460   44.7580   58.4280 C.3    15  MET15       0.0692
     50  N         33.5310   42.1260   59.6620 N.3    18  PHE18      -0.1241
     51  CA        33.4120   42.8750   58.4120 C.3    18  PHE18       0.1605
     52  C         34.0920   42.0850   57.2890 C.2    18  PHE18       0.2264
     53  O         33.5980   42.0460   56.1810 O.2    18  PHE18      -0.2867
     54  CB        34.0920   44.2540   58.5840 C.3    18  PHE18       0.0534
     55  CG        34.4060   44.9460   57.2910 C.ar   18  PHE18      -0.0203
     56  CD1       33.4670   45.7710   56.6730 C.ar   18  PHE18      -0.0042
     57  CD2       35.6470   44.7720   56.6850 C.ar   18  PHE18      -0.0042
     58  CE1       33.7540   46.4250   55.4600 C.ar   18  PHE18      -0.0003
     59  CE2       35.9500   45.4160   55.4780 C.ar   18  PHE18      -0.0003
     60  CZ        34.9900   46.2490   54.8620 C.ar   18  PHE18      -0.0000
     61  N         46.2600   44.2850   68.7530 N.3   215  VAL215     -0.1245
     62  CA        45.2650   45.0140   67.9850 C.3   215  VAL215      0.1561
     63  C         45.8920   45.4870   66.6760 C.2   215  VAL215      0.2260
     64  O         45.3280   45.2910   65.6110 O.2   215  VAL215     -0.2867
     65  CB        44.7610   46.2480   68.7760 C.3   215  VAL215      0.0252
     66  CG1       43.9740   47.1910   67.8460 C.3   215  VAL215      0.0019
     67  CG2       43.9020   45.7870   69.9370 C.3   215  VAL215      0.0019
     68  N         44.8760   44.0490   62.8990 N.3   219  VAL219     -0.1245
     69  CA        44.3300   45.0380   61.9880 C.3   219  VAL219      0.1561
     70  C         45.1460   45.1770   60.7110 C.2   219  VAL219      0.2260
     71  O         44.5780   45.3190   59.6240 O.2   219  VAL219     -0.2867
     72  CB        44.2210   46.3980   62.6500 C.3   219  VAL219      0.0252
     73  CG1       44.0390   47.4620   61.5850 C.3   219  VAL219      0.0019
     74  CG2       43.0470   46.3900   63.6350 C.3   219  VAL219      0.0019
     75  N         43.8440   44.0600   56.8510 N.3   223  ILE223     -0.1245
     76  CA        43.7290   45.0180   55.7660 C.3   223  ILE223      0.1561
     77  C         44.5190   44.4560   54.5800 C.2   223  ILE223      0.2260
     78  O         44.0550   44.5090   53.4360 O.2   223  ILE223     -0.2867
     79  CB        44.3180   46.4000   56.1860 C.3   223  ILE223      0.0252
     80  CG1       43.3400   47.0990   57.1420 C.3   223  ILE223      0.0019
     81  CG2       44.6660   47.2460   54.9400 C.3   223  ILE223      0.0019
     82  CD1       43.9680   48.2490   57.9710 C.3   223  ILE223      0.0001
@<TRIPOS>BOND
     1    78    77    2
     2    77    76    1
     3    60    58   ar
     4    60    59   ar
     5    81    79    1
     6    58    56   ar
     7    59    57   ar
     8    76    79    1
     9    76    75    1
    10    53    52    2
    11    79    80    1
    12    56    55   ar
    13    57    55   ar
    14    80    82    1
    15    52    51    1
    16    55    54    1
    17    51    54    1
    18    51    50    1
    19    49    48    1
    20    71    70    2
    21    45    44    2
    22    48    47    1
    23    70    69    1
    24    44    43    1
    25    47    46    1
    26    73    72    1
    27    43    46    1
    28    43    42    1
    29    69    72    1
    30    69    68    1
    31    72    74    1
    32    40    39    1
    33    37    36    2
    34    64    63    2
    35    39    41    1
    36    39    38    1
    37    36    35    1
    38    63    62    1
    39    35    38    1
    40    35    34    1
    41    31    30    2
    42    66    65    1
    43    62    61    1
    44    62    65    1
    45    30    34   am
    46    30    29    1
    47    65    67    1
    48    29    32    1
    49    29    28    1
    50    32    33    1
    51    22    21    2
    52    18    17    2
    53    21    20    1
    54    20    19    1
    55    20    23    1
    56    17    19   am
    57    17    16    1
    58    16    15    1
    59    23    24    1
    60    11    10    2
    61    24    25    1
    62    15    10   am
    63    10     9    1
    64    27    25   am
    65    25    26    2
    66     4     3    2
    67     9    12    1
    68     9     8    1
    69     6     5    1
    70    12    13    1
    71     3     8   am
    72     3     2    1
    73     8    14    1
    74     1     2    1
    75     5     2    1
    76     5     7    1
    77    13    14    1
