@<TRIPOS>MOLECULE
tmp/3ddlB02.pdb
 72 67 0 0 0
SMALL
GASTEIGER

@<TRIPOS>ATOM
      1  N         48.8970   29.6810   52.7070 N.3    94  LEU94      -0.1231
      2  CA        49.3820   28.5540   51.9160 C.3    94  LEU94       0.1693
      3  C         48.4470   28.1420   50.7860 C.2    94  LEU94       0.2591
      4  O         48.8920   27.7770   49.7000 O.2    94  LEU94      -0.2718
      5  CB        49.6320   27.3480   52.8130 C.3    94  LEU94       0.0284
      6  CG        50.1230   26.1030   52.0690 C.3    94  LEU94       0.0019
      7  CD1       51.5770   26.2930   51.5580 C.3    94  LEU94       0.0001
      8  CD2       50.0680   24.9430   53.0200 C.3    94  LEU94       0.0001
      9  N         47.1460   28.1730   51.0470 N.am   95  LEU95      -0.1980
     10  CA        46.1840   27.7820   50.0340 C.3    95  LEU95       0.1596
     11  C         45.8860   28.8960   49.0220 C.2    95  LEU95       0.2287
     12  O         45.6900   28.6160   47.8320 O.2    95  LEU95      -0.2864
     13  CB        44.8620   27.3500   50.7070 C.3    95  LEU95       0.0297
     14  CG        44.9970   26.1920   51.7130 C.3    95  LEU95       0.0022
     15  CD1       43.6560   25.8710   52.3480 C.3    95  LEU95       0.0001
     16  CD2       45.5640   24.9540   50.9920 C.3    95  LEU95       0.0001
     17  N         49.1250   30.8100   46.1690 N.3    98  PRO98      -0.2102
     18  CA        49.4260   30.2670   44.8420 C.3    98  PRO98       0.1504
     19  C         48.3290   30.6730   43.8470 C.2    98  PRO98       0.2575
     20  O         48.6100   31.0540   42.7020 O.2    98  PRO98      -0.2718
     21  CB        49.4610   28.7460   45.0840 C.3    98  PRO98       0.0282
     22  CG        49.9390   28.6490   46.5110 C.3    98  PRO98       0.0208
     23  CD        49.1670   29.7460   47.2040 C.3    98  PRO98       0.0893
     24  N         47.0740   30.6010   44.2930 N.am   99  LEU99      -0.1980
     25  CA        45.9480   30.9350   43.4290 C.3    99  LEU99       0.1596
     26  C         45.9810   32.3980   42.9880 C.2    99  LEU99       0.2287
     27  O         45.5780   32.7280   41.8790 O.2    99  LEU99      -0.2864
     28  CB        44.6070   30.6300   44.1500 C.3    99  LEU99       0.0297
     29  CG        44.4030   29.1480   44.5180 C.3    99  LEU99       0.0022
     30  CD1       43.0970   28.9270   45.2940 C.3    99  LEU99       0.0001
     31  CD2       44.4020   28.3290   43.2560 C.3    99  LEU99       0.0001
     32  N         48.1380   32.5040   40.0260 N.3   102  VAL102     -0.1245
     33  CA        47.4860   31.8290   38.9180 C.3   102  VAL102      0.1561
     34  C         46.4480   32.7080   38.2380 C.2   102  VAL102      0.2260
     35  O         46.4360   32.8160   37.0220 O.2   102  VAL102     -0.2867
     36  CB        46.8060   30.4790   39.3780 C.3   102  VAL102      0.0252
     37  CG1       45.9270   29.9130   38.2650 C.3   102  VAL102      0.0019
     38  CG2       47.8780   29.4460   39.7690 C.3   102  VAL102      0.0019
     39  N         50.2360   27.8110   31.0200 N.3   116  GLY116     -0.1225
     40  CA        50.3940   26.6980   31.9360 C.3   116  GLY116      0.1811
     41  C         51.7410   26.6830   32.6310 C.2   116  GLY116      0.2280
     42  O         51.7920   26.5510   33.8400 O.2   116  GLY116     -0.2866
     43  N         51.9240   29.6510   35.2050 N.3   119  ALA119     -0.1231
     44  CA        51.0340   29.4860   36.3590 C.3   119  ALA119      0.1694
     45  C         51.6550   28.4880   37.3280 C.2   119  ALA119      0.2591
     46  O         51.6260   28.6820   38.5370 O.2   119  ALA119     -0.2718
     47  CB        49.6600   28.9690   35.9010 C.3   119  ALA119      0.0304
     48  N         52.2230   27.4100   36.7890 N.am  120  ALA120     -0.1980
     49  CA        52.8190   26.3800   37.6310 C.3   120  ALA120      0.1597
     50  C         54.0640   26.8870   38.3350 C.2   120  ALA120      0.2287
     51  O         54.2950   26.5870   39.4970 O.2   120  ALA120     -0.2864
     52  CB        53.1500   25.1180   36.7800 C.3   120  ALA120      0.0319
     53  N         52.8570   29.5850   40.9830 N.3   123  GLY123     -0.1210
     54  CA        52.0810   28.9540   42.0360 C.3   123  GLY123      0.1956
     55  C         52.9500   28.1700   43.0070 C.2   123  GLY123      0.2611
     56  O         52.7960   28.2720   44.2220 O.2   123  GLY123     -0.2717
     57  N         53.8680   27.3690   42.4910 N.am  124  PHE124     -0.1976
     58  CA        54.7300   26.6120   43.3940 C.3   124  PHE124      0.1639
     59  C         55.7920   27.4390   44.1370 C.2   124  PHE124      0.2290
     60  O         56.2160   27.0630   45.2390 O.2   124  PHE124     -0.2864
     61  CB        55.3240   25.4150   42.6520 C.3   124  PHE124      0.0560
     62  CG        54.3510   24.2700   42.5350 C.ar  124  PHE124     -0.0200
     63  CD1       53.7010   23.9940   41.3350 C.ar  124  PHE124     -0.0042
     64  CD2       54.0280   23.5040   43.6590 C.ar  124  PHE124     -0.0042
     65  CE1       52.7430   22.9720   41.2550 C.ar  124  PHE124     -0.0003
     66  CE2       53.0670   22.4770   43.5790 C.ar  124  PHE124     -0.0003
     67  CZ        52.4320   22.2160   42.3840 C.ar  124  PHE124     -0.0000
     68  N         53.7990   28.9050   47.0130 N.3   127  ALA127     -0.1245
     69  CA        53.5720   27.9080   48.0610 C.3   127  ALA127      0.1562
     70  C         54.8580   27.6810   48.8500 C.2   127  ALA127      0.2260
     71  O         54.8370   27.6140   50.0690 O.2   127  ALA127     -0.2867
     72  CB        53.0760   26.5660   47.4330 C.3   127  ALA127      0.0290
@<TRIPOS>BOND
     1    39    40    1
     2    40    41    1
     3    41    42    2
     4    43    44    1
     5    47    44    1
     6    44    45    1
     7    52    49    1
     8    48    45   am
     9    48    49    1
    10    35    34    2
    11    45    46    2
    12    49    50    1
    13    34    33    1
    14    37    36    1
    15    50    51    2
    16    33    36    1
    17    33    32    1
    18    36    38    1
    19    53    54    1
    20    65    63   ar
    21    65    67   ar
    22    63    62   ar
    23    27    26    2
    24    54    55    1
    25    67    66   ar
    26    57    55   am
    27    57    58    1
    28    62    61    1
    29    62    64   ar
    30    61    58    1
    31    20    19    2
    32    26    25    1
    33    55    56    2
    34    31    29    1
    35    58    59    1
    36    25    28    1
    37    25    24    1
    38    66    64   ar
    39    19    24   am
    40    19    18    1
    41    59    60    2
    42    28    29    1
    43    29    30    1
    44    18    21    1
    45    18    17    1
    46    21    22    1
    47    17    23    1
    48    22    23    1
    49    68    69    1
    50    72    69    1
    51    12    11    2
    52    69    70    1
    53    70    71    2
    54    11    10    1
    55     4     3    2
    56    10    13    1
    57    10     9    1
    58    13    14    1
    59     3     9   am
    60     3     2    1
    61    16    14    1
    62     7     6    1
    63    14    15    1
    64     2     1    1
    65     2     5    1
    66     6     5    1
    67     6     8    1
