@<TRIPOS>MOLECULE
tmp/3ddlA00.pdb
 215 203 0 0 0
SMALL
GASTEIGER

@<TRIPOS>ATOM
      1  N         42.2780   -7.4320   38.7270 N.3   145  LEU145     -0.1245
      2  CA        42.0050   -7.7140   40.1270 C.3   145  LEU145      0.1561
      3  C         42.2210   -9.2100   40.3300 C.2   145  LEU145      0.2260
      4  O         42.8580   -9.6380   41.3000 O.2   145  LEU145     -0.2867
      5  CB        40.5680   -7.3160   40.4610 C.3   145  LEU145      0.0270
      6  CG        40.0520   -7.3570   41.9030 C.3   145  LEU145      0.0019
      7  CD1       39.2100   -8.6040   42.0890 C.3   145  LEU145      0.0001
      8  CD2       41.2140   -7.2910   42.9150 C.3   145  LEU145      0.0001
      9  N         48.2790   -8.3770   39.8890 N.3   149  ARG149     -0.1231
     10  CA        48.1130   -7.1330   40.6350 C.3   149  ARG149      0.1694
     11  C         47.1910   -7.2640   41.8430 C.2   149  ARG149      0.2592
     12  O         47.5060   -6.7610   42.9160 O.2   149  ARG149     -0.2718
     13  CB        47.6120   -6.0150   39.7180 C.3   149  ARG149      0.0321
     14  CG        47.9860   -4.6160   40.2410 C.3   149  ARG149      0.0489
     15  CD        47.4070   -3.5290   39.3940 C.3   149  ARG149      0.2205
     16  NE        47.6240   -2.1920   39.9600 N.pl3 149  ARG149     -0.0865
     17  CZ        48.7680   -1.5160   39.8910 C.cat 149  ARG149      0.5346
     18  NH1       49.8270   -2.0390   39.2890 N.pl3 149  ARG149      0.1354
     19  NH2       48.8350   -0.2970   40.3870 N.pl3 149  ARG149      0.1354
     20  N         46.0440   -7.9250   41.6680 N.am  150  GLY150     -0.1957
     21  CA        45.1260   -8.1190   42.7820 C.3   150  GLY150      0.1869
     22  C         45.6850   -9.0890   43.8170 C.2   150  GLY150      0.2309
     23  O         45.4240   -8.9490   45.0050 O.2   150  GLY150     -0.2863
     24  N         48.3580   -7.1840   45.7600 N.3   153  GLY153     -0.1210
     25  CA        47.7290   -6.0770   46.4730 C.3   153  GLY153      0.1956
     26  C         47.0500   -6.6240   47.7220 C.2   153  GLY153      0.2611
     27  O         47.0410   -6.0060   48.8030 O.2   153  GLY153     -0.2717
     28  N         46.4590   -7.8030   47.5680 N.am  154  PHE154     -0.1976
     29  CA        45.7950   -8.4700   48.6830 C.3   154  PHE154      0.1639
     30  C         46.8270   -8.8870   49.7440 C.2   154  PHE154      0.2290
     31  O         46.6600   -8.6350   50.9240 O.2   154  PHE154     -0.2864
     32  CB        45.0660   -9.7210   48.1900 C.3   154  PHE154      0.0560
     33  CG        44.6350  -10.6410   49.3020 C.ar  154  PHE154     -0.0200
     34  CD1       43.5190  -10.3490   50.0710 C.ar  154  PHE154     -0.0042
     35  CD2       45.3770  -11.7780   49.6050 C.ar  154  PHE154     -0.0042
     36  CE1       43.1450  -11.1880   51.1380 C.ar  154  PHE154     -0.0003
     37  CE2       45.0180  -12.6130   50.6580 C.ar  154  PHE154     -0.0003
     38  CZ        43.9020  -12.3210   51.4260 C.ar  154  PHE154     -0.0000
     39  N         48.0560   -5.8860   51.5820 N.3   157  THR157     -0.1218
     40  CA        47.0410   -5.2850   52.4630 C.3   157  THR157      0.1862
     41  C         47.0510   -5.9550   53.8390 C.2   157  THR157      0.2287
     42  O         46.6810   -5.3430   54.8380 O.2   157  THR157     -0.2866
     43  CB        45.6060   -5.3990   51.8250 C.3   157  THR157      0.1770
     44  OG1       45.5620   -4.6490   50.6040 O.3   157  THR157     -0.2211
     45  CG2       44.5160   -4.8770   52.7910 C.3   157  THR157      0.0375
     46  N         49.3490   -4.1260   56.1640 N.3   160  PHE160     -0.1227
     47  CA        48.8080   -2.7720   56.2470 C.3   160  PHE160      0.1736
     48  C         47.6620   -2.6980   57.2690 C.2   160  PHE160      0.2595
     49  O         47.6970   -1.8610   58.1770 O.2   160  PHE160     -0.2718
     50  CB        48.3280   -2.3080   54.8530 C.3   160  PHE160      0.0547
     51  CG        47.7120   -0.9300   54.8380 C.ar  160  PHE160     -0.0202
     52  CD1       48.3450    0.1400   55.4630 C.ar  160  PHE160     -0.0042
     53  CD2       46.4880   -0.7050   54.2080 C.ar  160  PHE160     -0.0042
     54  CE1       47.7660    1.4130   55.4690 C.ar  160  PHE160     -0.0003
     55  CE2       45.8980    0.5780   54.2030 C.ar  160  PHE160     -0.0003
     56  CZ        46.5340    1.6290   54.8320 C.ar  160  PHE160     -0.0000
     57  N         46.6570   -3.5740   57.1450 N.am  161  VAL161     -0.1980
     58  CA        45.5320   -3.5380   58.0930 C.3   161  VAL161      0.1595
     59  C         46.0090   -3.9400   59.4830 C.2   161  VAL161      0.2287
     60  O         45.4970   -3.4620   60.5070 O.2   161  VAL161     -0.2864
     61  CB        44.3650   -4.4800   57.6690 C.3   161  VAL161      0.0276
     62  CG1       44.0460   -4.2930   56.2080 C.3   161  VAL161      0.0022
     63  CG2       44.6990   -5.9130   57.9850 C.3   161  VAL161      0.0022
     64  N         47.2680   -0.8270   60.9290 N.3   164  LEU164     -0.1245
     65  CA        46.1280    0.0310   61.2690 C.3   164  LEU164      0.1561
     66  C         45.3870   -0.5050   62.4860 C.2   164  LEU164      0.2260
     67  O         44.9810    0.2520   63.3680 O.2   164  LEU164     -0.2867
     68  CB        45.1580    0.1390   60.0840 C.3   164  LEU164      0.0270
     69  CG        45.6850    0.8080   58.8150 C.3   164  LEU164      0.0019
     70  CD1       44.5640    0.8480   57.7950 C.3   164  LEU164      0.0001
     71  CD2       46.1920    2.2430   59.1180 C.3   164  LEU164      0.0001
     72  N         45.9320   17.9160   75.1630 N.3   181  ARG181     -0.1245
     73  CA        46.7200   18.4580   74.0720 C.3   181  ARG181      0.1563
     74  C         47.4690   17.3410   73.3230 C.2   181  ARG181      0.2260
     75  O         47.3460   17.1980   72.1060 O.2   181  ARG181     -0.2867
     76  CB        47.7140   19.4770   74.6330 C.3   181  ARG181      0.0307
     77  CG        48.6960   20.0260   73.6230 C.3   181  ARG181      0.0489
     78  CD        47.9770   20.5690   72.4090 C.3   181  ARG181      0.2205
     79  NE        48.8710   21.3300   71.5460 N.pl3 181  ARG181     -0.0865
     80  CZ        48.5330   21.7910   70.3470 C.cat 181  ARG181      0.5346
     81  NH1       47.3150   21.5660   69.8690 N.pl3 181  ARG181      0.1354
     82  NH2       49.4230   22.4600   69.6210 N.pl3 181  ARG181      0.1354
     83  N         45.2560   14.7060   71.6900 N.3   184  THR184     -0.1203
     84  CA        44.6970   15.2490   70.4700 C.3   184  THR184      0.1994
     85  C         45.7190   15.1540   69.3410 C.2   184  THR184      0.2617
     86  O         45.4280   14.5820   68.3000 O.2   184  THR184     -0.2717
     87  CB        44.2330   16.7090   70.6900 C.3   184  THR184      0.1784
     88  OG1       43.1840   16.7070   71.6610 O.3   184  THR184     -0.2211
     89  CG2       43.6940   17.3220   69.4030 C.3   184  THR184      0.0376
     90  N         46.9100   15.7050   69.5590 N.am  185  LEU185     -0.1979
     91  CA        47.9780   15.6570   68.5590 C.3   185  LEU185      0.1596
     92  C         48.2540   14.2120   68.1050 C.2   185  LEU185      0.2287
     93  O         48.3810   13.9440   66.9170 O.2   185  LEU185     -0.2864
     94  CB        49.2460   16.2710   69.1490 C.3   185  LEU185      0.0297
     95  CG        49.2210   17.7820   69.4220 C.3   185  LEU185      0.0022
     96  CD1       50.3880   18.1790   70.3210 C.3   185  LEU185      0.0001
     97  CD2       49.2970   18.5330   68.1000 C.3   185  LEU185      0.0001
     98  N         45.5710   12.9790   65.9110 N.3   188  ASN188     -0.1240
     99  CA        45.6650   13.5960   64.5940 C.3   188  ASN188      0.1653
    100  C         46.7390   12.9570   63.7070 C.2   188  ASN188      0.2266
    101  O         46.5500   12.8430   62.4910 O.2   188  ASN188     -0.2867
    102  CB        45.9280   15.0990   64.7310 C.3   188  ASN188      0.1155
    103  CG        44.6880   15.8750   65.1610 C.2   188  ASN188      0.2627
    104  OD1       43.5830   15.3580   65.1390 O.2   188  ASN188     -0.2716
    105  ND2       44.8750   17.1270   65.5270 N.am  188  ASN188     -0.0877
    106  N         45.5090    9.6620   62.4060 N.3   191  LEU191     -0.1231
    107  CA        44.4990    9.9160   61.3780 C.3   191  LEU191      0.1693
    108  C         45.1460   10.3730   60.0710 C.2   191  LEU191      0.2591
    109  O         44.6790   10.0270   58.9870 O.2   191  LEU191     -0.2718
    110  CB        43.5360   10.9950   61.8690 C.3   191  LEU191      0.0284
    111  CG        42.1920   11.0860   61.1710 C.3   191  LEU191      0.0019
    112  CD1       41.2120   11.9270   62.0130 C.3   191  LEU191      0.0001
    113  CD2       42.3950   11.6850   59.8020 C.3   191  LEU191      0.0001
    114  N         46.2110   11.1620   60.1870 N.am  192  LEU192     -0.1980
    115  CA        46.9100   11.6350   59.0110 C.3   192  LEU192      0.1596
    116  C         47.5560   10.4150   58.3550 C.2   192  LEU192      0.2287
    117  O         47.5620   10.3100   57.1330 O.2   192  LEU192     -0.2864
    118  CB        47.9870   12.6750   59.3830 C.3   192  LEU192      0.0297
    119  CG        48.7430   13.2510   58.1730 C.3   192  LEU192      0.0022
    120  CD1       47.7520   13.9510   57.1930 C.3   192  LEU192      0.0001
    121  CD2       49.8220   14.2220   58.6500 C.3   192  LEU192      0.0001
    122  N         46.4810    7.2830   58.4640 N.3   194  LEU194     -0.1231
    123  CA        45.4000    6.5320   57.7830 C.3   194  LEU194      0.1693
    124  C         45.0050    7.1310   56.4400 C.2   194  LEU194      0.2592
    125  O         44.8670    6.4280   55.4390 O.2   194  LEU194     -0.2718
    126  CB        44.1440    6.4810   58.6670 C.3   194  LEU194      0.0284
    127  CG        42.8440    5.9310   58.0380 C.3   194  LEU194      0.0019
    128  CD1       42.9780    4.4400   57.7690 C.3   194  LEU194      0.0001
    129  CD2       41.6610    6.1830   59.0130 C.3   194  LEU194      0.0001
    130  N         44.8190    8.4390   56.4200 N.am  195  ALA195     -0.1966
    131  CA        44.4160    9.1460   55.2110 C.3   195  ALA195      0.1728
    132  C         45.4830    9.1330   54.1180 C.2   195  ALA195      0.2616
    133  O         45.1820    8.8720   52.9480 O.2   195  ALA195     -0.2715
    134  CB        44.0670   10.6130   55.5550 C.3   195  ALA195      0.0334
    135  N         46.7250    9.4450   54.4830 N.am  196  THR196     -0.1951
    136  CA        47.7600    9.4760   53.4600 C.3   196  THR196      0.1897
    137  C         48.1290    8.0620   53.0370 C.2   196  THR196      0.2313
    138  O         48.1950    7.7650   51.8460 O.2   196  THR196     -0.2863
    139  CB        49.0120   10.2560   53.9610 C.3   196  THR196      0.1794
    140  OG1       49.5380    9.6470   55.1540 O.3   196  THR196     -0.2208
    141  CG2       48.6220   11.7180   54.2760 C.3   196  THR196      0.0378
    142  N         46.3340    5.5240   53.1980 N.3   198  GLY198     -0.1210
    143  CA        45.1750    5.0110   52.4670 C.3   198  GLY198      0.1956
    144  C         45.1920    5.3650   50.9930 C.2   198  GLY198      0.2611
    145  O         44.7080    4.5920   50.1660 O.2   198  GLY198     -0.2717
    146  N         45.7640    6.5190   50.6370 N.am  199  PHE199     -0.1976
    147  CA        45.8340    6.9180   49.2270 C.3   199  PHE199      0.1639
    148  C         46.5370    5.8890   48.3290 C.2   199  PHE199      0.2290
    149  O         46.0920    5.6110   47.2030 O.2   199  PHE199     -0.2864
    150  CB        46.5860    8.2560   49.0680 C.3   199  PHE199      0.0560
    151  CG        46.7650    8.6870   47.6290 C.ar  199  PHE199     -0.0200
    152  CD1       45.7300    9.3150   46.9370 C.ar  199  PHE199     -0.0042
    153  CD2       47.9450    8.4230   46.9520 C.ar  199  PHE199     -0.0042
    154  CE1       45.8700    9.6680   45.6020 C.ar  199  PHE199     -0.0003
    155  CE2       48.1010    8.7700   45.6120 C.ar  199  PHE199     -0.0003
    156  CZ        47.0700    9.3900   44.9300 C.ar  199  PHE199     -0.0000
    157  N         47.0490    2.3590   48.3920 N.3   201  PRO201     -0.2102
    158  CA        46.3740    1.1910   47.7940 C.3   201  PRO201      0.1504
    159  C         45.1920    1.6200   46.9030 C.2   201  PRO201      0.2575
    160  O         44.7910    0.8970   45.9970 O.2   201  PRO201     -0.2718
    161  CB        45.9460    0.3570   49.0110 C.3   201  PRO201      0.0282
    162  CG        45.8350    1.3730   50.1320 C.3   201  PRO201      0.0208
    163  CD        47.0360    2.2900   49.8620 C.3   201  PRO201      0.0893
    164  N         44.6390    2.8000   47.1600 N.am  202  ILE202     -0.1980
    165  CA        43.5450    3.3090   46.3370 C.3   202  ILE202      0.1595
    166  C         44.1050    3.5920   44.9470 C.2   202  ILE202      0.2287
    167  O         43.5520    3.1330   43.9450 O.2   202  ILE202     -0.2864
    168  CB        42.9020    4.5830   46.9700 C.3   202  ILE202      0.0276
    169  CG1       42.0610    4.1710   48.1850 C.3   202  ILE202      0.0022
    170  CG2       42.0230    5.3320   45.9330 C.3   202  ILE202      0.0022
    171  CD1       41.5050    5.3560   48.9990 C.3   202  ILE202      0.0001
    172  N         46.6930    2.3270   43.6810 N.3   204  TYR204     -0.1227
    173  CA        47.1340    1.0320   43.1630 C.3   204  TYR204      0.1736
    174  C         46.0080    0.3580   42.3740 C.2   204  TYR204      0.2595
    175  O         46.2410   -0.2490   41.3180 O.2   204  TYR204     -0.2718
    176  CB        47.5170    0.1240   44.3360 C.3   204  TYR204      0.0548
    177  CG        48.0040   -1.2570   43.9680 C.ar  204  TYR204     -0.0200
    178  CD1       49.3500   -1.4870   43.6940 C.ar  204  TYR204     -0.0009
    179  CD2       47.1260   -2.3580   43.9500 C.ar  204  TYR204     -0.0009
    180  CE1       49.8200   -2.7680   43.4200 C.ar  204  TYR204      0.0417
    181  CE2       47.5910   -3.6610   43.6670 C.ar  204  TYR204      0.0417
    182  CZ        48.9450   -3.8530   43.4030 C.ar  204  TYR204      0.1957
    183  OH        49.4380   -5.1090   43.1060 O.3   204  TYR204     -0.2866
    184  N         44.7960    0.4670   42.9130 N.am  205  MET205     -0.1979
    185  CA        43.6110   -0.1420   42.3270 C.3   205  MET205      0.1605
    186  C         42.9750    0.5950   41.1700 C.2   205  MET205      0.2287
    187  O         42.3140   -0.0300   40.3530 O.2   205  MET205     -0.2864
    188  CB        42.5320   -0.3400   43.3930 C.3   205  MET205      0.0413
    189  CG        42.8610   -1.3770   44.4240 C.3   205  MET205      0.0598
    190  SD        41.4290   -1.7230   45.4480 S.3   205  MET205     -0.1393
    191  CE        41.1030   -0.0990   46.1710 C.3   205  MET205      0.0692
    192  N         42.8940   -1.1030   38.0320 N.3   208  MET208     -0.1245
    193  CA        41.9750   -2.2280   38.1280 C.3   208  MET208      0.1570
    194  C         40.5620   -1.6730   38.0010 C.2   208  MET208      0.2261
    195  O         40.0830   -1.4260   36.8980 O.2   208  MET208     -0.2867
    196  CB        42.1270   -2.9460   39.4780 C.3   208  MET208      0.0387
    197  CG        43.4350   -3.6880   39.6670 C.3   208  MET208      0.0595
    198  SD        43.5710   -4.4470   41.3060 S.3   208  MET208     -0.1393
    199  CE        44.6510   -3.3370   42.1060 C.3   208  MET208      0.0692
    200  N         52.8250   14.9820   52.4540 N.3   229  LEU229     -0.1245
    201  CA        51.9770   14.9560   53.6510 C.3   229  LEU229      0.1561
    202  C         52.3180   13.8200   54.6030 C.2   229  LEU229      0.2260
    203  O         52.3010   13.9910   55.7970 O.2   229  LEU229     -0.2867
    204  CB        50.4930   14.8470   53.2550 C.3   229  LEU229      0.0270
    205  CG        49.8140   15.9850   52.4760 C.3   229  LEU229      0.0019
    206  CD1       48.3010   15.6620   52.3050 C.3   229  LEU229      0.0001
    207  CD2       49.9860   17.3010   53.2440 C.3   229  LEU229      0.0001
    208  N         53.9640   17.1480   62.7100 N.3   237  LEU237     -0.1245
    209  CA        53.0710   16.7430   63.7920 C.3   237  LEU237      0.1561
    210  C         53.8640   15.9990   64.8770 C.2   237  LEU237      0.2260
    211  O         53.6490   16.2120   66.0790 O.2   237  LEU237     -0.2867
    212  CB        51.9580   15.8270   63.2590 C.3   237  LEU237      0.0270
    213  CG        50.6920   16.5190   62.7570 C.3   237  LEU237      0.0019
    214  CD1       49.7010   15.4800   62.2490 C.3   237  LEU237      0.0001
    215  CD2       50.0940   17.3650   63.9000 C.3   237  LEU237      0.0001
@<TRIPOS>BOND
     1   195   194    2
     2   194   193    1
     3   192   193    1
     4   193   196    1
     5     1     2    1
     6    18    17    1
     7    15    16    1
     8    15    14    1
     9   196   197    1
    10   197   198    1
    11    13    14    1
    12    13    10    1
    13     9    10    1
    14    17    16    2
    15    17    19    1
    16     2     3    1
    17     2     5    1
    18     3     4    2
    19   187   186    2
    20     5     6    1
    21    10    11    1
    22   186   185    1
    23   198   199    1
    24   175   174    2
    25    20    11   am
    26    20    21    1
    27    11    12    2
    28     6     7    1
    29     6     8    1
    30   185   184    1
    31   185   188    1
    32   174   184   am
    33   174   173    1
    34    21    22    1
    35   183   182    1
    36   173   172    1
    37   173   176    1
    38   188   189    1
    39   182   180   ar
    40   182   181   ar
    41   180   178   ar
    42   181   179   ar
    43   178   177   ar
    44    22    23    2
    45   167   166    2
    46   179   177   ar
    47   177   176    1
    48   189   190    1
    49   156   154   ar
    50   156   155   ar
    51   166   165    1
    52   190   191    1
    53   154   152   ar
    54   155   153   ar
    55    24    25    1
    56   170   168    1
    57   160   159    2
    58   165   168    1
    59   165   164    1
    60    25    26    1
    61   159   164   am
    62   159   158    1
    63   152   151   ar
    64   153   151   ar
    65   168   169    1
    66   149   148    2
    67    28    26   am
    68    28    29    1
    69   151   150    1
    70    26    27    2
    71   158   157    1
    72   158   161    1
    73   169   171    1
    74    32    29    1
    75    32    33    1
    76   148   147    1
    77   157   163    1
    78    29    30    1
    79   161   162    1
    80   150   147    1
    81   147   146    1
    82    33    35   ar
    83    33    34   ar
    84    35    37   ar
    85    30    31    2
    86   163   162    1
    87    34    36   ar
    88   145   144    2
    89    44    43    1
    90   146   144   am
    91    37    38   ar
    92   144   143    1
    93    36    38   ar
    94    39    40    1
    95    43    40    1
    96    43    45    1
    97   138   137    2
    98   206   205    1
    99   200   201    1
   100    40    41    1
   101   143   142    1
   102   205   207    1
   103   205   204    1
   104   133   132    2
   105   137   136    1
   106   204   201    1
   107   136   139    1
   108   136   135    1
   109   201   202    1
   110    41    42    2
   111   139   141    1
   112   139   140    1
   113   132   135   am
   114   132   131    1
   115    55    53   ar
   116    55    56   ar
   117    53    51   ar
   118   202   203    2
   119    56    54   ar
   120    51    50    1
   121    51    52   ar
   122    50    47    1
   123   131   134    1
   124   131   130    1
   125   125   124    2
   126    52    54   ar
   127    46    47    1
   128    62    61    1
   129    47    48    1
   130   130   124   am
   131   124   123    1
   132   117   116    2
   133    57    48   am
   134    57    58    1
   135   120   119    1
   136    48    49    2
   137    61    63    1
   138    61    58    1
   139   128   127    1
   140   123   122    1
   141   123   126    1
   142    70    69    1
   143   127   126    1
   144   127   129    1
   145    58    59    1
   146   119   121    1
   147   119   118    1
   148   116   115    1
   149    69    71    1
   150    69    68    1
   151   109   108    2
   152   115   118    1
   153   115   114    1
   154    59    60    2
   155   113   111    1
   156   108   114   am
   157   108   107    1
   158    68    65    1
   159    64    65    1
   160   111   110    1
   161   111   112    1
   162    65    66    1
   163   107   110    1
   164   107   106    1
   165   214   213    1
   166    66    67    2
   167   101   100    2
   168   208   209    1
   169   213   212    1
   170   213   215    1
   171   212   209    1
   172   100    99    1
   173   209   210    1
   174    99   102    1
   175    99    98    1
   176   102   103    1
   177   210   211    2
   178   104   103    2
   179   103   105   am
   180    93    92    2
   181    97    95    1
   182    92    91    1
   183    86    85    2
   184    91    94    1
   185    91    90    1
   186    94    95    1
   187    85    90   am
   188    85    84    1
   189    89    87    1
   190    95    96    1
   191    82    80    1
   192    81    80    1
   193    80    79    2
   194    84    87    1
   195    84    83    1
   196    87    88    1
   197    79    78    1
   198    75    74    2
   199    78    77    1
   200    74    73    1
   201    77    76    1
   202    73    76    1
   203    73    72    1
