@<TRIPOS>MOLECULE
tmp/3ddnB02.pdb
 92 87 0 0 0
SMALL
GASTEIGER

@<TRIPOS>ATOM
      1  N          9.2840   47.8510  -23.6640 N.3    49  ARG49      -0.1231
      2  CA        10.3090   47.6220  -22.6940 C.3    49  ARG49       0.1694
      3  C         11.0660   46.3760  -23.1450 C.2    49  ARG49       0.2592
      4  O         11.9480   46.4710  -23.9880 O.2    49  ARG49      -0.2718
      5  CB         9.6740   47.4620  -21.3330 C.3    49  ARG49       0.0321
      6  CG        10.4680   48.0050  -20.2090 C.3    49  ARG49       0.0489
      7  CD         9.6380   47.9130  -18.9800 C.3    49  ARG49       0.2205
      8  NE        10.4360   47.5310  -17.8320 N.pl3  49  ARG49      -0.0865
      9  CZ         9.9110   47.1200  -16.6830 C.cat  49  ARG49       0.5346
     10  NH1       10.7100   46.7890  -15.6770 N.pl3  49  ARG49       0.1354
     11  NH2        8.5840   47.0440  -16.5410 N.pl3  49  ARG49       0.1354
     12  N         10.7230   45.2070  -22.6170 N.am   50  SER50      -0.1952
     13  CA        11.3610   43.9720  -23.0830 C.3    50  SER50       0.1924
     14  C         10.3680   42.8910  -23.4960 C.2    50  SER50       0.2314
     15  O         10.6320   42.1410  -24.4320 O.2    50  SER50      -0.2863
     16  CB        12.3600   43.4240  -22.0580 C.3    50  SER50       0.2116
     17  OG        11.9220   43.6490  -20.7330 O.3    50  SER50      -0.2180
     18  N         12.4690   51.9100  -27.0740 N.3    70  ARG70      -0.1231
     19  CA        12.5100   51.0020  -25.9370 C.3    70  ARG70       0.1694
     20  C         12.9590   51.7330  -24.6860 C.2    70  ARG70       0.2592
     21  O         13.9820   52.4290  -24.6990 O.2    70  ARG70      -0.2718
     22  CB        13.4220   49.8080  -26.1910 C.3    70  ARG70       0.0321
     23  CG        13.5600   48.9300  -24.9740 C.3    70  ARG70       0.0489
     24  CD        14.7320   48.0250  -25.1180 C.3    70  ARG70       0.2205
     25  NE        14.5520   46.7260  -24.4770 N.pl3  70  ARG70      -0.0865
     26  CZ        14.9280   46.4370  -23.2330 C.cat  70  ARG70       0.5346
     27  NH1       15.4840   47.3510  -22.4600 N.pl3  70  ARG70       0.1354
     28  NH2       14.7360   45.2200  -22.7560 N.pl3  70  ARG70       0.1354
     29  N         12.1590   51.6010  -23.6240 N.am   71  ALA71      -0.1966
     30  CA        12.4660   52.1850  -22.3240 C.3    71  ALA71       0.1728
     31  C         13.5480   51.3450  -21.6410 C.2    71  ALA71       0.2617
     32  O         13.2670   50.5900  -20.7220 O.2    71  ALA71      -0.2715
     33  CB        11.2150   52.2250  -21.4630 C.3    71  ALA71       0.0334
     34  N         14.7770   51.4750  -22.1090 N.am   72  GLY72      -0.1940
     35  CA        15.8820   50.6560  -21.6430 C.3    72  GLY72       0.2014
     36  C         17.0920   50.7970  -22.5620 C.2    72  GLY72       0.2639
     37  O         17.0240   51.4460  -23.6140 O.2    72  GLY72      -0.2714
     38  N         18.2050   50.1970  -22.1500 N.am   73  VAL73      -0.1963
     39  CA        19.4650   50.2580  -22.8900 C.3    73  VAL73       0.1727
     40  C         19.5450   49.2250  -24.0240 C.2    73  VAL73       0.2616
     41  O         19.8230   49.5750  -25.1710 O.2    73  VAL73      -0.2715
     42  CB        20.6730   50.1060  -21.9430 C.3    73  VAL73       0.0290
     43  CG1       21.9510   49.9810  -22.7530 C.3    73  VAL73       0.0023
     44  CG2       20.7590   51.3250  -21.0070 C.3    73  VAL73       0.0023
     45  N         19.2810   47.9600  -23.7200 N.am   74  GLY74      -0.1955
     46  CA        19.3760   46.9240  -24.7460 C.3    74  GLY74       0.1869
     47  C         18.2910   47.0110  -25.8120 C.2    74  GLY74       0.2309
     48  O         17.3020   47.7070  -25.6430 O.2    74  GLY74      -0.2863
     49  N         19.8270   55.6750  -19.0120 N.3    96  SER96      -0.1202
     50  CA        18.7970   55.6000  -17.9780 C.3    96  SER96       0.2020
     51  C         19.2370   54.6430  -16.8470 C.2    96  SER96       0.2618
     52  O         18.7780   54.7270  -15.7160 O.2    96  SER96      -0.2717
     53  CB        17.4880   55.1030  -18.6030 C.3    96  SER96       0.2103
     54  OG        17.6590   53.8280  -19.2310 O.3    96  SER96      -0.2182
     55  N         20.0880   53.7180  -17.2660 N.am   97  ASN97      -0.1974
     56  CA        20.8410   52.6900  -16.5700 C.3    97  ASN97       0.1688
     57  C         21.8030   53.1220  -15.4780 C.2    97  ASN97       0.2292
     58  O         22.0670   52.3720  -14.5520 O.2    97  ASN97      -0.2864
     59  CB        21.8200   52.1340  -17.6570 C.3    97  ASN97       0.1181
     60  CG        21.8480   50.6790  -17.6920 C.2    97  ASN97       0.2629
     61  OD1       22.7340   50.0850  -18.2840 O.2    97  ASN97      -0.2716
     62  ND2       20.8590   50.0590  -17.0640 N.am   97  ASN97      -0.0877
     63  N         19.6630   39.4640  -13.8500 N.3   278  HIS278     -0.1241
     64  CA        19.7130   40.7090  -14.6170 C.3   278  HIS278      0.1621
     65  C         18.8660   41.8030  -13.9980 C.2   278  HIS278      0.2264
     66  O         18.0440   42.4300  -14.6760 O.2   278  HIS278     -0.2867
     67  CB        19.2790   40.4810  -16.0640 C.3   278  HIS278      0.0745
     68  CG        19.8590   41.4680  -17.0250 C.ar  278  HIS278      0.0817
     69  ND1       20.2260   41.1300  -18.3100 N.ar  278  HIS278     -0.2268
     70  CD2       20.1550   42.7840  -16.8830 C.ar  278  HIS278      0.1154
     71  CE1       20.7100   42.1970  -18.9230 C.ar  278  HIS278      0.1986
     72  NE2       20.6770   43.2140  -18.0780 N.ar  278  HIS278     -0.2212
     73  N         19.1430   46.9720  -13.7170 N.3   281  ALA281     -0.1231
     74  CA        18.4130   48.1920  -14.0730 C.3   281  ALA281      0.1694
     75  C         16.9780   48.1620  -13.5720 C.2   281  ALA281      0.2592
     76  O         16.1760   49.0210  -13.9090 O.2   281  ALA281     -0.2718
     77  CB        18.4540   48.4160  -15.6050 C.3   281  ALA281      0.0304
     78  N         16.6700   47.1740  -12.7400 N.am  282  SER282     -0.1952
     79  CA        15.3140   46.9770  -12.2590 C.3   282  SER282      0.1924
     80  C         15.0700   47.8220  -11.0230 C.2   282  SER282      0.2314
     81  O         15.2160   47.3550   -9.8990 O.2   282  SER282     -0.2863
     82  CB        15.0580   45.5020  -11.9670 C.3   282  SER282      0.2116
     83  OG        15.4850   44.6940  -13.0480 O.3   282  SER282     -0.2180
     84  N         13.6780   53.1470  -14.4630 N.3   287  GLN287     -0.1245
     85  CA        12.5090   53.0480  -15.3180 C.3   287  GLN287      0.1566
     86  C         11.8490   54.4280  -15.5110 C.2   287  GLN287      0.2260
     87  O         11.4540   54.8210  -16.6170 O.2   287  GLN287     -0.2867
     88  CB        11.5610   52.0120  -14.7430 C.3   287  GLN287      0.0367
     89  CG        11.9250   50.5870  -15.1540 C.3   287  GLN287      0.0905
     90  CD        12.0090   50.4340  -16.6890 C.2   287  GLN287      0.2608
     91  OE1       10.9920   50.4920  -17.4010 O.2   287  GLN287     -0.2717
     92  NE2       13.2350   50.2570  -17.2010 N.am  287  GLN287     -0.0878
@<TRIPOS>BOND
     1    18    19    1
     2    22    19    1
     3    22    23    1
     4    19    20    1
     5    47    48    2
     6    47    46    1
     7    41    40    2
     8    24    23    1
     9    24    25    1
    10    46    45    1
    11    21    20    2
    12    20    29   am
    13    25    26    2
    14    15    14    2
    15    40    45   am
    16    40    39    1
    17     4     3    2
    18     1     2    1
    19    29    30    1
    20    37    36    2
    21    14    13    1
    22    26    28    1
    23    26    27    1
    24     3     2    1
    25     3    12   am
    26    13    12    1
    27    13    16    1
    28    39    38    1
    29    39    42    1
    30    43    42    1
    31     2     5    1
    32    36    38   am
    33    36    35    1
    34    30    31    1
    35    30    33    1
    36    34    35    1
    37    34    31   am
    38    16    17    1
    39    42    44    1
    40    31    32    2
    41     5     6    1
    42     6     7    1
    43    54    53    1
    44    49    50    1
    45     7     8    1
    46    71    69   ar
    47    71    72   ar
    48    53    50    1
    49    69    68   ar
    50    61    60    2
    51    72    70   ar
    52    50    51    1
    53     8     9    2
    54    60    59    1
    55    60    62   am
    56    59    56    1
    57    91    90    2
    58    55    51   am
    59    55    56    1
    60    92    90   am
    61    68    70   ar
    62    68    67    1
    63    51    52    2
    64    90    89    1
    65     9    11    1
    66     9    10    1
    67    87    86    2
    68    56    57    1
    69    67    64    1
    70    77    74    1
    71    86    85    1
    72    57    58    2
    73    85    88    1
    74    85    84    1
    75    89    88    1
    76    66    65    2
    77    64    65    1
    78    64    63    1
    79    74    73    1
    80    74    75    1
    81    76    75    2
    82    75    78   am
    83    83    82    1
    84    78    79    1
    85    79    82    1
    86    79    80    1
    87    80    81    2
