@<TRIPOS>MOLECULE
tmp/3ddpC00.pdb
 193 185 0 0 0
SMALL
GASTEIGER

@<TRIPOS>ATOM
      1  N         20.9910  -17.7130   37.2590 N.3     9  GLU9       -0.1231
      2  CA        21.4210  -18.0810   38.6080 C.3     9  GLU9        0.1699
      3  C         22.5160  -17.1810   39.1530 C.2     9  GLU9        0.2592
      4  O         23.1240  -16.4130   38.4090 O.2     9  GLU9       -0.2718
      5  CB        21.8950  -19.5330   38.6400 C.3     9  GLU9        0.0402
      6  CG        23.0730  -19.8300   37.7340 C.3     9  GLU9        0.1161
      7  CD        23.0300  -21.2420   37.1860 C.2     9  GLU9        0.3649
      8  OE1       21.9920  -21.9260   37.3630 O.co2   9  GLU9       -0.2457
      9  OE2       24.0310  -21.6660   36.5690 O.co2   9  GLU9       -0.2457
     10  N         22.7510  -17.2850   40.4580 N.am   10  LYS10      -0.1966
     11  CA        23.8370  -16.5730   41.1200 C.3    10  LYS10       0.1728
     12  C         25.1100  -17.3850   40.9810 C.2    10  LYS10       0.2616
     13  O         25.0820  -18.6060   41.1010 O.2    10  LYS10      -0.2715
     14  CB        23.5050  -16.3390   42.5940 C.3    10  LYS10       0.0311
     15  CG        24.5980  -15.6350   43.3850 C.3    10  LYS10       0.0038
     16  CD        24.0760  -15.1850   44.7310 C.3    10  LYS10       0.0206
     17  CE        25.1810  -15.1840   45.7720 C.3    10  LYS10       0.1093
     18  NZ        24.6640  -14.7810   47.1160 N.3    10  LYS10      -0.1314
     19  N         26.2240  -16.7110   40.7240 N.am   11  ILE11      -0.1963
     20  CA        27.4670  -17.4230   40.4640 C.3    11  ILE11       0.1730
     21  C         28.5840  -17.1330   41.4630 C.2    11  ILE11       0.2656
     22  O         29.5370  -17.9110   41.5680 O.2    11  ILE11      -0.2711
     23  CB        27.9620  -17.2410   38.9990 C.3    11  ILE11       0.0290
     24  CG1       28.5460  -15.8600   38.7570 C.3    11  ILE11       0.0022
     25  CG2       26.8390  -17.5170   37.9990 C.3    11  ILE11       0.0023
     26  CD1       29.0490  -15.6910   37.3320 C.3    11  ILE11       0.0001
     27  N         28.4590  -16.0370   42.2070 N.am   12  GLY12      -0.1716
     28  CA        29.5130  -15.6360   43.1240 C.2    12  GLY12       0.1480
     29  C         29.4440  -14.2130   43.6350 C.2    12  GLY12       0.2820
     30  O         28.5290  -13.4550   43.3030 O.2    12  GLY12      -0.2669
     31  N         30.4390  -13.8540   44.4420 N.am   13  GLU13      -0.1929
     32  CA        30.4070  -12.6110   45.1970 C.3    13  GLU13       0.1736
     33  C         31.7430  -11.8760   45.1780 C.2    13  GLU13       0.2617
     34  O         31.8070  -10.7100   45.5640 O.2    13  GLU13      -0.2715
     35  CB        29.9900  -12.9060   46.6360 C.3    13  GLU13       0.0429
     36  CG        29.1340  -11.8380   47.2860 C.3    13  GLU13       0.1163
     37  CD        27.9010  -12.4340   47.9460 C.2    13  GLU13       0.3649
     38  OE1       27.7030  -12.2380   49.1690 O.co2  13  GLU13      -0.2457
     39  OE2       27.1320  -13.1190   47.2380 O.co2  13  GLU13      -0.2457
     40  N         32.8010  -12.5480   44.7230 N.am   14  GLY14      -0.1955
     41  CA        34.1650  -11.9880   44.7360 C.3    14  GLY14       0.1869
     42  C         34.2920  -10.4790   44.5420 C.2    14  GLY14       0.2309
     43  O         33.8500   -9.9560   43.5240 O.2    14  GLY14      -0.2863
     44  N         27.5750  -11.2570   41.5520 N.3    19  VAL19      -0.1245
     45  CA        27.4800  -11.6010   40.1220 C.3    19  VAL19       0.1561
     46  C         26.4150  -12.6650   39.8110 C.2    19  VAL19       0.2260
     47  O         26.4000  -13.7460   40.4140 O.2    19  VAL19      -0.2867
     48  CB        28.8300  -12.0560   39.5340 C.3    19  VAL19       0.0252
     49  CG1       28.7170  -12.2370   38.0300 C.3    19  VAL19       0.0019
     50  CG2       29.9000  -11.0390   39.8260 C.3    19  VAL19       0.0019
     51  N         24.4690  -14.9100   36.5720 N.3    21  LYS21      -0.1245
     52  CA        24.4380  -15.2820   35.1650 C.3    21  LYS21       0.1561
     53  C         23.0570  -14.9320   34.6550 C.2    21  LYS21       0.2260
     54  O         22.0510  -15.3120   35.2610 O.2    21  LYS21      -0.2867
     55  CB        24.7100  -16.7690   34.9840 C.3    21  LYS21       0.0271
     56  CG        24.6870  -17.2430   33.5450 C.3    21  LYS21       0.0035
     57  CD        25.0010  -18.7250   33.4690 C.3    21  LYS21       0.0206
     58  CE        24.7880  -19.2800   32.0730 C.3    21  LYS21       0.1093
     59  NZ        25.4830  -20.5950   31.8700 N.3    21  LYS21      -0.1314
     60  N         27.0130  -11.9100   32.2930 N.3    32  ALA32      -0.1245
     61  CA        27.2680  -11.9190   33.7140 C.3    32  ALA32       0.1562
     62  C         26.9370  -10.5300   34.2180 C.2    32  ALA32       0.2260
     63  O         27.4340   -9.5400   33.6730 O.2    32  ALA32      -0.2867
     64  CB        28.7080  -12.2320   33.9600 C.3    32  ALA32       0.0290
     65  N         27.0120   -7.8020   37.2690 N.3    34  LYS34      -0.1245
     66  CA        27.4960   -7.3130   38.5590 C.3    34  LYS34       0.1561
     67  C         26.4840   -6.3220   39.1050 C.2    34  LYS34       0.2260
     68  O         26.2100   -5.2990   38.4740 O.2    34  LYS34      -0.2867
     69  CB        28.8450   -6.6110   38.4100 C.3    34  LYS34       0.0271
     70  CG        30.0590   -7.3710   38.9260 C.3    34  LYS34       0.0035
     71  CD        31.1430   -6.3860   39.3930 C.3    34  LYS34       0.0206
     72  CE        32.4770   -7.0680   39.6950 C.3    34  LYS34       0.1093
     73  NZ        33.2740   -7.4360   38.4680 N.3    34  LYS34      -0.1314
     74  N         38.3530   -9.0640   30.2780 N.3    65  VAL65      -0.1245
     75  CA        36.9100   -9.2470   30.2550 C.3    65  VAL65       0.1561
     76  C         36.2320   -8.0000   29.7050 C.2    65  VAL65       0.2260
     77  O         36.6480   -6.8780   30.0090 O.2    65  VAL65      -0.2867
     78  CB        36.3600   -9.6020   31.6670 C.3    65  VAL65       0.0252
     79  CG1       36.6010   -8.4500   32.6690 C.3    65  VAL65       0.0019
     80  CG2       34.8860   -9.9800   31.5930 C.3    65  VAL65       0.0019
     81  N         28.4200   -7.7080   31.6960 N.3    81  PHE81      -0.1227
     82  CA        29.6770   -8.2640   31.1920 C.3    81  PHE81       0.1736
     83  C         29.4520   -9.4350   30.2510 C.2    81  PHE81       0.2595
     84  O         28.4380  -10.1310   30.3510 O.2    81  PHE81      -0.2718
     85  CB        30.4900   -8.8250   32.3470 C.3    81  PHE81       0.0547
     86  CG        31.1020   -7.8030   33.2150 C.ar   81  PHE81      -0.0202
     87  CD1       30.5200   -7.4820   34.4370 C.ar   81  PHE81      -0.0042
     88  CD2       32.2840   -7.1830   32.8400 C.ar   81  PHE81      -0.0042
     89  CE1       31.0970   -6.5470   35.2770 C.ar   81  PHE81      -0.0003
     90  CE2       32.8690   -6.2380   33.6600 C.ar   81  PHE81      -0.0003
     91  CZ        32.2750   -5.9160   34.8870 C.ar   81  PHE81      -0.0000
     92  N         30.4230   -9.6900   29.3760 N.am   82  GLU82      -0.1965
     93  CA        30.4530  -10.9600   28.6680 C.3    82  GLU82       0.1733
     94  C         30.5180  -12.0780   29.6990 C.2    82  GLU82       0.2616
     95  O         31.0940  -11.9160   30.7800 O.2    82  GLU82      -0.2715
     96  CB        31.6370  -11.0510   27.7140 C.3    82  GLU82       0.0429
     97  CG        32.9860  -10.8480   28.3720 C.3    82  GLU82       0.1163
     98  CD        34.1500  -11.1380   27.4480 C.2    82  GLU82       0.3649
     99  OE1       33.9730  -11.8910   26.4540 O.co2  82  GLU82      -0.2457
    100  OE2       35.2550  -10.6120   27.7220 O.co2  82  GLU82      -0.2457
    101  N         29.9080  -13.2060   29.3680 N.am   83  PHE83      -0.1960
    102  CA        29.9230  -14.3560   30.2490 C.3    83  PHE83       0.1771
    103  C         31.0570  -15.3020   29.8700 C.2    83  PHE83       0.2619
    104  O         31.1790  -15.7290   28.7170 O.2    83  PHE83      -0.2715
    105  CB        28.5740  -15.0670   30.2110 C.3    83  PHE83       0.0574
    106  CG        28.5890  -16.4370   30.8300 C.ar   83  PHE83      -0.0200
    107  CD1       28.4320  -16.5950   32.2080 C.ar   83  PHE83      -0.0042
    108  CD2       28.7470  -17.5760   30.0300 C.ar   83  PHE83      -0.0042
    109  CE1       28.4340  -17.8620   32.7860 C.ar   83  PHE83      -0.0003
    110  CE2       28.7570  -18.8490   30.5930 C.ar   83  PHE83      -0.0003
    111  CZ        28.5960  -18.9940   31.9760 C.ar   83  PHE83      -0.0000
    112  N         31.8960  -15.6070   30.8520 N.am   84  LEU84      -0.1963
    113  CA        32.9170  -16.6290   30.6860 C.3    84  LEU84       0.1728
    114  C         32.5830  -17.8410   31.5340 C.2    84  LEU84       0.2616
    115  O         31.9360  -17.7270   32.5650 O.2    84  LEU84      -0.2715
    116  CB        34.3100  -16.0800   30.9640 C.3    84  LEU84       0.0311
    117  CG        34.7590  -15.2200   29.7860 C.3    84  LEU84       0.0022
    118  CD1       34.6740  -13.7540   30.1530 C.3    84  LEU84       0.0001
    119  CD2       36.1540  -15.5890   29.3560 C.3    84  LEU84       0.0001
    120  N         33.0150  -19.0050   31.0740 N.am   85  HIS85      -0.1959
    121  CA        32.3620  -20.2580   31.4420 C.3    85  HIS85       0.1787
    122  C         32.8270  -20.7970   32.7900 C.2    85  HIS85       0.2620
    123  O         32.0330  -21.3920   33.5230 O.2    85  HIS85      -0.2715
    124  CB        32.5090  -21.2860   30.3090 C.3    85  HIS85       0.0785
    125  CG        31.9940  -20.7970   28.9800 C.ar   85  HIS85       0.0821
    126  ND1       32.4880  -19.6670   28.3510 N.ar   85  HIS85      -0.2267
    127  CD2       31.0240  -21.2830   28.1660 C.ar   85  HIS85       0.1154
    128  CE1       31.8420  -19.4770   27.2140 C.ar   85  HIS85       0.1986
    129  NE2       30.9520  -20.4460   27.0760 N.ar   85  HIS85      -0.2212
    130  N         34.1020  -20.5690   33.1140 N.am   86  GLN86      -0.1963
    131  CA        34.6410  -20.8710   34.4410 C.3    86  GLN86       0.1733
    132  C         35.9830  -20.1680   34.7550 C.2    86  GLN86       0.2616
    133  O         36.6730  -19.7070   33.8440 O.2    86  GLN86      -0.2715
    134  CB        34.7280  -22.3870   34.6570 C.3    86  GLN86       0.0408
    135  CG        35.9720  -23.0470   34.1090 C.3    86  GLN86       0.0908
    136  CD        36.0250  -24.5180   34.4540 C.2    86  GLN86       0.2608
    137  OE1       34.9930  -25.1560   34.6710 O.2    86  GLN86      -0.2717
    138  NE2       37.2240  -25.0680   34.5000 N.am   86  GLN86      -0.0878
    139  N         36.3260  -20.0800   36.0480 N.am   87  ASP87      -0.1971
    140  CA        37.5930  -19.4840   36.4870 C.3    87  ASP87       0.1709
    141  C         38.7350  -20.4930   36.4390 C.2    87  ASP87       0.2293
    142  O         38.5030  -21.6950   36.4160 O.2    87  ASP87      -0.2864
    143  CB        37.4660  -18.8210   37.8700 C.3    87  ASP87       0.1436
    144  CG        37.2450  -19.8240   39.0120 C.2    87  ASP87       0.3671
    145  OD1       38.1730  -20.5930   39.3550 O.co2  87  ASP87      -0.2456
    146  OD2       36.1480  -19.8090   39.6040 O.co2  87  ASP87      -0.2456
    147  N         39.6770  -23.8040   38.6730 N.3    90  LYS90      -0.1245
    148  CA        38.4990  -24.6200   38.8370 C.3    90  LYS90       0.1561
    149  C         38.3210  -25.9570   38.1020 C.2    90  LYS90       0.2260
    150  O         37.9170  -26.9300   38.7570 O.2    90  LYS90      -0.2867
    151  CB        37.2620  -23.7340   38.6330 C.3    90  LYS90       0.0271
    152  CG        35.9510  -24.2560   39.1970 C.3    90  LYS90       0.0035
    153  CD        35.1630  -25.0610   38.1540 C.3    90  LYS90       0.0206
    154  CE        33.6690  -25.0860   38.4770 C.3    90  LYS90       0.1093
    155  NZ        33.0700  -26.4330   38.2460 N.3    90  LYS90      -0.1314
    156  N         41.1330  -17.0010   40.6150 N.3   132  GLN132     -0.1231
    157  CA        39.6800  -16.8850   40.5640 C.3   132  GLN132      0.1698
    158  C         39.2750  -15.7270   39.6400 C.2   132  GLN132      0.2592
    159  O         38.1610  -15.6970   39.1160 O.2   132  GLN132     -0.2718
    160  CB        39.1030  -16.6780   41.9670 C.3   132  GLN132      0.0381
    161  CG        39.1910  -17.9060   42.9000 C.3   132  GLN132      0.0905
    162  CD        40.5000  -18.0050   43.6930 C.2   132  GLN132      0.2608
    163  OE1       41.5040  -17.3770   43.3600 O.2   132  GLN132     -0.2717
    164  NE2       40.4850  -18.8060   44.7480 N.am  132  GLN132     -0.0878
    165  N         40.1940  -14.7830   39.4480 N.am  133  ASN133     -0.1974
    166  CA        39.9640  -13.5860   38.6400 C.3   133  ASN133      0.1688
    167  C         40.4710  -13.7390   37.2030 C.2   133  ASN133      0.2292
    168  O         40.5680  -12.7610   36.4660 O.2   133  ASN133     -0.2864
    169  CB        40.6220  -12.3590   39.2940 C.3   133  ASN133      0.1181
    170  CG        39.8860  -11.8760   40.5460 C.2   133  ASN133      0.2629
    171  OD1       38.7660  -12.2960   40.8360 O.2   133  ASN133     -0.2716
    172  ND2       40.5250  -10.9790   41.2910 N.am  133  ASN133     -0.0877
    173  N         39.4470  -15.7280   33.9210 N.3   135  LEU135     -0.1245
    174  CA        38.3280  -16.5000   33.3990 C.3   135  LEU135      0.1561
    175  C         38.6170  -17.0770   32.0220 C.2   135  LEU135      0.2260
    176  O         39.2960  -16.4480   31.2050 O.2   135  LEU135     -0.2867
    177  CB        37.0740  -15.6320   33.3620 C.3   135  LEU135      0.0270
    178  CG        36.6460  -14.9630   34.6730 C.3   135  LEU135      0.0019
    179  CD1       35.5410  -13.9510   34.4000 C.3   135  LEU135      0.0001
    180  CD2       36.1800  -15.9930   35.6790 C.3   135  LEU135      0.0001
    181  N         39.7950  -10.6080   34.9100 N.3   145  ALA145     -0.1231
    182  CA        38.4930  -10.1370   35.4080 C.3   145  ALA145      0.1694
    183  C         38.6340   -9.3620   36.6980 C.2   145  ALA145      0.2592
    184  O         39.7120   -9.3100   37.2710 O.2   145  ALA145     -0.2718
    185  CB        37.5500  -11.3070   35.6180 C.3   145  ALA145      0.0304
    186  N         37.5240   -8.7900   37.1560 N.am  146  ASP146     -0.1974
    187  CA        37.4390   -8.0280   38.4130 C.3   146  ASP146      0.1709
    188  C         38.5560   -7.0170   38.6120 C.2   146  ASP146      0.2293
    189  O         39.6320   -7.3270   39.1200 O.2   146  ASP146     -0.2864
    190  CB        37.3200   -8.9360   39.6390 C.3   146  ASP146      0.1436
    191  CG        36.5210   -8.2870   40.7640 C.2   146  ASP146      0.3671
    192  OD1       36.7560   -7.0920   41.0870 O.co2 146  ASP146     -0.2456
    193  OD2       35.6480   -8.9800   41.3280 O.co2 146  ASP146     -0.2456
@<TRIPOS>BOND
     1    99    98   ar
     2   129   128   ar
     3   129   127   ar
     4   128   126   ar
     5    98   100   ar
     6    98    97    1
     7    96    97    1
     8    96    93    1
     9   127   125   ar
    10   126   125   ar
    11    93    92    1
    12    93    94    1
    13   104   103    2
    14   125   124    1
    15   119   117    1
    16   101    94   am
    17   101   102    1
    18    92    83   am
    19    94    95    2
    20    76    77    2
    21    76    75    1
    22   117   118    1
    23   117   116    1
    24   103   102    1
    25   103   112   am
    26   108   110   ar
    27   108   106   ar
    28   105   102    1
    29   105   106    1
    30    83    84    2
    31    83    82    1
    32    75    74    1
    33    75    78    1
    34   124   121    1
    35   110   111   ar
    36   113   112    1
    37   113   116    1
    38   113   114    1
    39   106   107   ar
    40   120   121    1
    41   120   114   am
    42    82    81    1
    43    82    85    1
    44   176   175    2
    45   121   122    1
    46   114   115    2
    47    80    78    1
    48    78    79    1
    49    59    58    1
    50   111   109   ar
    51   175   174    1
    52    58    57    1
    53   107   109   ar
    54    60    61    1
    55    85    86    1
    56   122   130   am
    57   122   123    2
    58    88    86   ar
    59    88    90   ar
    60   130   131    1
    61    86    87   ar
    62   177   174    1
    63   177   178    1
    64   174   173    1
    65    57    56    1
    66    56    55    1
    67    90    91   ar
    68    63    62    2
    69    61    64    1
    70    61    62    1
    71   133   132    2
    72   135   136    1
    73   135   134    1
    74   179   178    1
    75    87    89   ar
    76   131   134    1
    77   131   132    1
    78   136   138   am
    79   136   137    2
    80    53    52    1
    81    53    54    2
    82   178   180    1
    83   132   139   am
    84    91    89   ar
    85   181   182    1
    86    55    52    1
    87    52    51    1
    88   182   185    1
    89   182   183    1
    90   139   140    1
    91   142   141    2
    92   141   140    1
    93   168   167    2
    94   140   143    1
    95     9     7   ar
    96   183   186   am
    97   183   184    2
    98   186   187    1
    99     7     8   ar
   100     7     6    1
   101   167   166    1
   102     1     2    1
   103    65    66    1
   104    26    24    1
   105     6     5    1
   106   143   144    1
   107    25    23    1
   108    49    48    1
   109   149   150    2
   110   149   148    1
   111   153   154    1
   112   153   152    1
   113   155   154    1
   114     4     3    2
   115    69    66    1
   116    69    70    1
   117   187   188    1
   118   187   190    1
   119    73    72    1
   120    68    67    2
   121    66    67    1
   122     2     5    1
   123     2     3    1
   124   188   189    2
   125   151   148    1
   126   151   152    1
   127   166   169    1
   128   166   165    1
   129   147   148    1
   130    24    23    1
   131    70    71    1
   132    23    20    1
   133   144   145   ar
   134   144   146   ar
   135   159   158    2
   136     3    10   am
   137   169   170    1
   138    71    72    1
   139   165   158   am
   140    48    50    1
   141    48    45    1
   142   190   191    1
   143   158   157    1
   144    46    45    1
   145    46    47    2
   146    45    44    1
   147    10    11    1
   148    20    19    1
   149    20    21    1
   150   170   171    2
   151   170   172   am
   152   157   156    1
   153   157   160    1
   154    19    12   am
   155   191   192   ar
   156   191   193   ar
   157    12    13    2
   158    12    11    1
   159    11    14    1
   160    21    22    2
   161    21    27    1
   162   160   161    1
   163    27    28    2
   164    14    15    1
   165   161   162    1
   166    28    29    1
   167    30    29    2
   168   163   162    2
   169    15    16    1
   170    43    42    2
   171    29    31   am
   172   162   164   am
   173    31    32    1
   174    42    41    1
   175    40    41    1
   176    40    33   am
   177    16    17    1
   178    33    32    1
   179    33    34    2
   180    32    35    1
   181    17    18    1
   182    35    36    1
   183    39    37   ar
   184    36    37    1
   185    37    38   ar
