@<TRIPOS>MOLECULE
tmp/3ddsA03.pdb
 166 158 0 0 0
SMALL
GASTEIGER

@<TRIPOS>ATOM
      1  N         92.8460  -98.2760  125.3270 N.3    55  TRP55      -0.1227
      2  CA        91.8220  -97.2540  125.1030 C.3    55  TRP55       0.1737
      3  C         90.4350  -97.9010  125.1110 C.2    55  TRP55       0.2595
      4  O         89.5330  -97.4510  125.8250 O.2    55  TRP55      -0.2718
      5  CB        92.0910  -96.5180  123.7860 C.3    55  TRP55       0.0564
      6  CG        91.4620  -95.1500  123.6550 C.ar   55  TRP55       0.0003
      7  CD1       90.7680  -94.4500  124.6080 C.ar   55  TRP55       0.0946
      8  CD2       91.5150  -94.3030  122.4990 C.ar   55  TRP55       0.0152
      9  NE1       90.3780  -93.2320  124.1060 N.ar   55  TRP55      -0.2442
     10  CE2       90.8260  -93.1120  122.8180 C.ar   55  TRP55       0.0810
     11  CE3       92.0780  -94.4360  121.2250 C.ar   55  TRP55       0.0012
     12  CZ2       90.6760  -92.0640  121.9060 C.ar   55  TRP55       0.0191
     13  CZ3       91.9300  -93.3880  120.3150 C.ar   55  TRP55       0.0001
     14  CH2       91.2330  -92.2220  120.6620 C.ar   55  TRP55       0.0015
     15  N         90.2910  -98.9800  124.3400 N.am   56  ILE56      -0.1980
     16  CA        89.0510  -99.7520  124.2960 C.3    56  ILE56       0.1595
     17  C         88.7300 -100.3550  125.6650 C.2    56  ILE56       0.2287
     18  O         87.5930 -100.2530  126.1340 O.2    56  ILE56      -0.2864
     19  CB        89.1010 -100.8410  123.1890 C.3    56  ILE56       0.0276
     20  CG1       89.0850 -100.1840  121.8100 C.3    56  ILE56       0.0022
     21  CG2       87.9170 -101.8110  123.3010 C.3    56  ILE56       0.0022
     22  CD1       89.3900 -101.1520  120.6490 C.3    56  ILE56       0.0001
     23  N         87.4070  -97.8130  128.1840 N.3    59  GLN59      -0.1231
     24  CA        85.9850  -97.5210  127.9510 C.3    59  GLN59       0.1698
     25  C         85.1010  -98.6490  128.5040 C.2    59  GLN59       0.2592
     26  O         84.0760  -98.3990  129.1390 O.2    59  GLN59      -0.2718
     27  CB        85.7060  -97.3230  126.4580 C.3    59  GLN59       0.0381
     28  CG        86.3420  -96.0740  125.8690 C.3    59  GLN59       0.0905
     29  CD        85.7910  -94.8070  126.4870 C.2    59  GLN59       0.2608
     30  OE1       86.3190  -94.3140  127.4750 O.2    59  GLN59      -0.2717
     31  NE2       84.7050  -94.2850  125.9180 N.am   59  GLN59      -0.0878
     32  N         85.5080  -99.8880  128.2580 N.am   60  GLN60      -0.1979
     33  CA        84.7660 -101.0540  128.7550 C.3    60  GLN60       0.1601
     34  C         84.7130 -101.0580  130.2790 C.2    60  GLN60       0.2287
     35  O         83.6720 -101.3620  130.8740 O.2    60  GLN60      -0.2864
     36  CB        85.4090 -102.3550  128.2760 C.3    60  GLN60       0.0394
     37  CG        84.6310 -103.6080  128.7120 C.3    60  GLN60       0.0908
     38  CD        85.1930 -104.8990  128.1290 C.2    60  GLN60       0.2608
     39  OE1       86.3740 -104.9840  127.7760 O.2    60  GLN60      -0.2717
     40  NE2       84.3430 -105.9210  128.0380 N.am   60  GLN60      -0.0878
     41  N         82.2990  -98.4800  131.6380 N.3    63  TYR63      -0.1227
     42  CA        80.9580  -99.0390  131.4550 C.3    63  TYR63       0.1736
     43  C         80.6460 -100.1470  132.4730 C.2    63  TYR63       0.2595
     44  O         79.5620 -100.1610  133.0670 O.2    63  TYR63      -0.2718
     45  CB        80.7480  -99.5740  130.0320 C.3    63  TYR63       0.0548
     46  CG        79.3910 -100.2270  129.9030 C.ar   63  TYR63      -0.0200
     47  CD1       78.2580  -99.4710  129.6350 C.ar   63  TYR63      -0.0009
     48  CD2       79.2380 -101.5910  130.1300 C.ar   63  TYR63      -0.0009
     49  CE1       76.9940 -100.0680  129.5540 C.ar   63  TYR63       0.0417
     50  CE2       77.9890 -102.1980  130.0600 C.ar   63  TYR63       0.0417
     51  CZ        76.8720 -101.4350  129.7720 C.ar   63  TYR63       0.1957
     52  OH        75.6420 -102.0490  129.7020 O.3    63  TYR63      -0.2866
     53  N         81.5870 -101.0660  132.6760 N.am   64  ASP64      -0.1974
     54  CA        81.3630 -102.2160  133.5650 C.3    64  ASP64       0.1709
     55  C         81.2330 -101.8490  135.0480 C.2    64  ASP64       0.2293
     56  O         80.3270 -102.3540  135.7280 O.2    64  ASP64      -0.2864
     57  CB        82.4710 -103.2680  133.4020 C.3    64  ASP64       0.1436
     58  CG        82.3460 -104.0810  132.1110 C.2    64  ASP64       0.3671
     59  OD1       81.2810 -104.0620  131.4630 O.co2  64  ASP64      -0.2456
     60  OD2       83.3320 -104.7600  131.7430 O.co2  64  ASP64      -0.2456
     61  N         82.1560  -90.1810  136.8560 N.3    69  ARG69      -0.1245
     62  CA        82.9550  -89.6120  135.7770 C.3    69  ARG69       0.1563
     63  C         83.2130  -88.1270  135.9910 C.2    69  ARG69       0.2260
     64  O         82.3620  -87.4120  136.5180 O.2    69  ARG69      -0.2867
     65  CB        82.2520  -89.8090  134.4370 C.3    69  ARG69       0.0307
     66  CG        82.2240  -91.2470  133.9640 C.3    69  ARG69       0.0489
     67  CD        81.3240  -91.3600  132.7720 C.3    69  ARG69       0.2205
     68  NE        81.0950  -92.7340  132.3620 N.pl3  69  ARG69      -0.0865
     69  CZ        81.8300  -93.4100  131.4870 C.cat  69  ARG69       0.5346
     70  NH1       82.8910  -92.8600  130.9060 N.pl3  69  ARG69       0.1354
     71  NH2       81.4910  -94.6570  131.1860 N.pl3  69  ARG69       0.1354
     72  N         87.1110  -87.2770  131.0790 N.3   143  TYR143     -0.1241
     73  CA        87.2260  -86.8250  129.6930 C.3   143  TYR143      0.1605
     74  C         87.3620  -85.3090  129.6570 C.2   143  TYR143      0.2264
     75  O         86.7240  -84.5950  130.4280 O.2   143  TYR143     -0.2867
     76  CB        86.0150  -87.2100  128.8410 C.3   143  TYR143      0.0534
     77  CG        85.6760  -88.6980  128.7610 C.ar  143  TYR143     -0.0201
     78  CD1       86.5730  -89.6860  129.1530 C.ar  143  TYR143     -0.0009
     79  CD2       84.4680  -89.1070  128.2240 C.ar  143  TYR143     -0.0009
     80  CE1       86.2320  -91.0480  129.0610 C.ar  143  TYR143      0.0417
     81  CE2       84.1270  -90.4520  128.1330 C.ar  143  TYR143      0.0417
     82  CZ        84.9980  -91.4070  128.5510 C.ar  143  TYR143      0.1957
     83  OH        84.6330  -92.7330  128.4550 O.3   143  TYR143     -0.2866
     84  N         84.7620  -89.2010  114.6220 N.3   181  ARG181     -0.1245
     85  CA        83.6330  -90.0820  114.9050 C.3   181  ARG181      0.1563
     86  C         82.2870  -89.4220  114.5470 C.2   181  ARG181      0.2260
     87  O         81.4840  -89.1190  115.4250 O.2   181  ARG181     -0.2867
     88  CB        83.6820  -90.5240  116.3610 C.3   181  ARG181      0.0307
     89  CG        84.9720  -91.2830  116.7510 C.3   181  ARG181      0.0489
     90  CD        84.6950  -92.2970  117.8240 C.3   181  ARG181      0.2205
     91  NE        85.8800  -92.7230  118.5770 N.pl3 181  ARG181     -0.0865
     92  CZ        86.5240  -93.8760  118.4200 C.cat 181  ARG181      0.5346
     93  NH1       86.1700  -94.7510  117.4950 N.pl3 181  ARG181      0.1354
     94  NH2       87.5610  -94.1350  119.1960 N.pl3 181  ARG181      0.1354
     95  N         78.6020  -90.0690  116.0340 N.3   184  PHE184     -0.1241
     96  CA        78.1900  -89.4970  117.3240 C.3   184  PHE184      0.1605
     97  C         77.8430  -88.0080  117.2490 C.2   184  PHE184      0.2264
     98  O         77.8250  -87.3150  118.2650 O.2   184  PHE184     -0.2867
     99  CB        79.2840  -89.7630  118.3680 C.3   184  PHE184      0.0534
    100  CG        79.5200  -91.2290  118.6140 C.ar  184  PHE184     -0.0203
    101  CD1       78.5110  -92.0200  119.1460 C.ar  184  PHE184     -0.0042
    102  CD2       80.7280  -91.8180  118.3030 C.ar  184  PHE184     -0.0042
    103  CE1       78.7120  -93.3790  119.3630 C.ar  184  PHE184     -0.0003
    104  CE2       80.9390  -93.1830  118.5140 C.ar  184  PHE184     -0.0003
    105  CZ        79.9280  -93.9600  119.0430 C.ar  184  PHE184     -0.0000
    106  N         88.1650  -87.7020  118.6950 N.3   215  ASP215     -0.1239
    107  CA        88.6990  -88.2430  119.9430 C.3   215  ASP215      0.1674
    108  C         90.2040  -88.4090  119.8820 C.2   215  ASP215      0.2266
    109  O         90.7220  -89.0360  118.9540 O.2   215  ASP215     -0.2867
    110  CB        88.0730  -89.6010  120.2410 C.3   215  ASP215      0.1410
    111  CG        86.5840  -89.5110  120.4790 C.2   215  ASP215      0.3668
    112  OD1       86.1160  -88.4470  120.9510 O.co2 215  ASP215     -0.2456
    113  OD2       85.8830  -90.5000  120.1760 O.co2 215  ASP215     -0.2456
    114  N         90.1930  -89.9200  127.2890 N.3   228  THR228     -0.1218
    115  CA        89.8280  -89.2950  126.0180 C.3   228  THR228      0.1862
    116  C         89.7570  -87.7820  126.1250 C.2   228  THR228      0.2287
    117  O         89.2820  -87.2360  127.1250 O.2   228  THR228     -0.2866
    118  CB        88.4550  -89.8100  125.5350 C.3   228  THR228      0.1770
    119  OG1       88.5170  -91.2260  125.3680 O.3   228  THR228     -0.2211
    120  CG2       88.0360  -89.1630  124.2040 C.3   228  THR228      0.0375
    121  N         87.7530  -85.2430  123.8350 N.3   230  ARG230     -0.1245
    122  CA        86.7650  -85.1890  122.7670 C.3   230  ARG230      0.1563
    123  C         86.5320  -83.7330  122.3760 C.2   230  ARG230      0.2260
    124  O         86.0730  -82.9160  123.1900 O.2   230  ARG230     -0.2867
    125  CB        85.4560  -85.8680  123.1840 C.3   230  ARG230      0.0307
    126  CG        84.3280  -85.7120  122.1700 C.3   230  ARG230      0.0489
    127  CD        83.2080  -86.7330  122.3760 C.3   230  ARG230      0.2205
    128  NE        83.5510  -88.0150  121.7640 N.pl3 230  ARG230     -0.0865
    129  CZ        82.6990  -89.0260  121.5760 C.cat 230  ARG230      0.5346
    130  NH1       81.4280  -88.9440  121.9620 N.pl3 230  ARG230      0.1354
    131  NH2       83.1320  -90.1410  121.0000 N.pl3 230  ARG230      0.1354
    132  N         76.0330  -85.3040  125.0140 N.3   286  ASP286     -0.1239
    133  CA        76.8810  -86.4970  125.0160 C.3   286  ASP286      0.1674
    134  C         76.9380  -87.1490  126.4040 C.2   286  ASP286      0.2266
    135  O         76.8490  -88.3740  126.5360 O.2   286  ASP286     -0.2867
    136  CB        78.3000  -86.1330  124.5300 C.3   286  ASP286      0.1410
    137  CG        79.0620  -87.3150  123.9410 C.2   286  ASP286      0.3668
    138  OD1       78.4590  -88.1600  123.2490 O.co2 286  ASP286     -0.2456
    139  OD2       80.2980  -87.3800  124.1490 O.co2 286  ASP286     -0.2456
    140  N         73.5060  -88.7530  127.1940 N.3   289  ARG289     -0.1231
    141  CA        73.4180  -89.9540  126.3720 C.3   289  ARG289      0.1694
    142  C         74.2060  -91.1240  127.0020 C.2   289  ARG289      0.2591
    143  O         73.7070  -92.2480  127.1070 O.2   289  ARG289     -0.2718
    144  CB        73.9490  -89.6020  124.9750 C.3   289  ARG289      0.0321
    145  CG        74.1270  -90.7450  124.0440 C.3   289  ARG289      0.0489
    146  CD        74.2370  -90.2710  122.6000 C.3   289  ARG289      0.2205
    147  NE        75.5050  -89.6210  122.2720 N.pl3 289  ARG289     -0.0865
    148  CZ        75.8180  -89.2170  121.0410 C.cat 289  ARG289      0.5346
    149  NH1       74.9540  -89.4030  120.0500 N.pl3 289  ARG289      0.1354
    150  NH2       76.9850  -88.6380  120.7840 N.pl3 289  ARG289      0.1354
    151  N         75.4370  -90.8540  127.4230 N.am  290  ARG290     -0.1980
    152  CA        76.2630  -91.8620  128.0680 C.3   290  ARG290      0.1597
    153  C         75.6440  -92.3360  129.3930 C.2   290  ARG290      0.2287
    154  O         75.6430  -93.5340  129.6840 O.2   290  ARG290     -0.2864
    155  CB        77.6770  -91.3320  128.2910 C.3   290  ARG290      0.0334
    156  CG        78.6630  -92.3760  128.7860 C.3   290  ARG290      0.0492
    157  CD        80.1030  -91.8710  128.7640 C.3   290  ARG290      0.2205
    158  NE        80.5200  -91.5070  127.4150 N.pl3 290  ARG290     -0.0865
    159  CZ        80.6780  -90.2650  126.9570 C.cat 290  ARG290      0.5346
    160  NH1       80.5140  -89.2000  127.7370 N.pl3 290  ARG290      0.1354
    161  NH2       81.0420  -90.0940  125.6930 N.pl3 290  ARG290      0.1354
    162  N         72.6440  -94.6520  128.7030 N.3   293  ALA293     -0.1245
    163  CA        73.1070  -95.9660  128.2440 C.3   293  ALA293      0.1562
    164  C         73.7710  -96.7840  129.3500 C.2   293  ALA293      0.2260
    165  O         73.9600  -98.0030  129.1950 O.2   293  ALA293     -0.2867
    166  CB        74.0810  -95.7980  127.0670 C.3   293  ALA293      0.0290
@<TRIPOS>BOND
     1    86    85    1
     2    86    87    2
     3    84    85    1
     4    85    88    1
     5    95    96    1
     6    88    89    1
     7    89    90    1
     8    97    96    1
     9    97    98    2
    10    96    99    1
    11    93    92    1
    12    90    91    1
    13   102   104   ar
    14   102   100   ar
    15    99   100    1
    16    92    91    2
    17    92    94    1
    18   104   105   ar
    19   100   101   ar
    20   106   107    1
    21   109   108    2
    22   105   103   ar
    23   101   103   ar
    24   108   107    1
    25   107   110    1
    26   149   148    1
    27   113   111   ar
    28   110   111    1
    29    13    14   ar
    30    13    11   ar
    31   111   112   ar
    32    22    20    1
    33    14    12   ar
    34   150   148    1
    35   131   129    1
    36   148   147    2
    37    11     8   ar
    38   129   128    2
    39   129   130    1
    40   128   127    1
    41    20    19    1
    42    12    10   ar
    43   126   127    1
    44   126   125    1
    45   147   146    1
    46   123   122    1
    47   123   124    2
    48     8    10   ar
    49     8     6   ar
    50   146   145    1
    51   122   125    1
    52   122   121    1
    53    10     9   ar
    54    19    21    1
    55    19    16    1
    56   138   137   ar
    57     6     5    1
    58     6     7   ar
    59     5     2    1
    60   137   139   ar
    61   137   136    1
    62   145   144    1
    63     9     7   ar
    64   120   118    1
    65    16    15    1
    66    16    17    1
    67    15     3   am
    68   136   133    1
    69   144   141    1
    70   132   133    1
    71   133   134    1
    72     2     3    1
    73     2     1    1
    74     3     4    2
    75   119   118    1
    76   118   115    1
    77    17    18    2
    78   161   159    1
    79    28    27    1
    80    28    29    1
    81    31    29   am
    82   115   116    1
    83   115   114    1
    84   116   117    2
    85   141   142    1
    86   141   140    1
    87   134   135    2
    88    27    24    1
    89    29    30    2
    90   159   158    2
    91   159   160    1
    92   142   143    2
    93   142   151   am
    94   166   163    1
    95   158   157    1
    96   151   152    1
    97    39    38    2
    98    24    23    1
    99    24    25    1
   100    40    38   am
   101   152   155    1
   102   152   153    1
   103    38    37    1
   104    81    79   ar
   105    81    82   ar
   106    79    77   ar
   107   163   162    1
   108   163   164    1
   109    32    25   am
   110    32    33    1
   111    36    37    1
   112    36    33    1
   113   155   156    1
   114    83    82    1
   115    25    26    2
   116    82    80   ar
   117    33    34    1
   118    77    76    1
   119    77    78   ar
   120   157   156    1
   121    76    73    1
   122    80    78   ar
   123   165   164    2
   124   153   154    2
   125    49    47   ar
   126    49    51   ar
   127    47    46   ar
   128    74    73    1
   129    74    75    2
   130    73    72    1
   131    52    51    1
   132    51    50   ar
   133    46    45    1
   134    46    48   ar
   135    45    42    1
   136    50    48   ar
   137    34    35    2
   138    70    69    1
   139    71    69    1
   140    42    41    1
   141    42    43    1
   142    59    58   ar
   143    69    68    2
   144    60    58   ar
   145    58    57    1
   146    68    67    1
   147    43    53   am
   148    43    44    2
   149    53    54    1
   150    67    66    1
   151    57    54    1
   152    54    55    1
   153    66    65    1
   154    65    62    1
   155    55    56    2
   156    62    63    1
   157    62    61    1
   158    63    64    2
