@<TRIPOS>MOLECULE
tmp/3dduA00.pdb
 159 152 0 0 0
SMALL
GASTEIGER

@<TRIPOS>ATOM
      1  N        -13.5350    7.2280   34.5070 N.3   172  PHE172     -0.1241
      2  CA       -12.9400    8.4280   35.1100 C.3   172  PHE172      0.1605
      3  C        -13.6520    8.7820   36.3990 C.2   172  PHE172      0.2264
      4  O        -14.0510    9.9240   36.6330 O.2   172  PHE172     -0.2867
      5  CB       -12.9200    9.6010   34.1280 C.3   172  PHE172      0.0534
      6  CG       -12.3050    9.2570   32.7920 C.ar  172  PHE172     -0.0203
      7  CD1      -11.0990    8.5680   32.7290 C.ar  172  PHE172     -0.0042
      8  CD2      -12.9490    9.5840   31.6110 C.ar  172  PHE172     -0.0042
      9  CE1      -10.5320    8.2450   31.4940 C.ar  172  PHE172     -0.0003
     10  CE2      -12.3900    9.2520   30.3780 C.ar  172  PHE172     -0.0003
     11  CZ       -11.1830    8.5800   30.3370 C.ar  172  PHE172     -0.0000
     12  N        -16.8980   17.3710   34.9660 N.3   234  MET234     -0.1245
     13  CA       -16.7690   16.0840   35.6440 C.3   234  MET234      0.1570
     14  C        -16.6090   16.3930   37.1280 C.2   234  MET234      0.2261
     15  O        -15.6660   17.0690   37.5200 O.2   234  MET234     -0.2867
     16  CB       -15.5520   15.3290   35.1010 C.3   234  MET234      0.0387
     17  CG       -15.6530   15.0420   33.6050 C.3   234  MET234      0.0595
     18  SD       -14.1030   14.5290   32.8450 S.3   234  MET234     -0.1393
     19  CE       -13.8870   12.8860   33.5090 C.3   234  MET234      0.0692
     20  N        -14.0850   19.4260   37.4040 N.3   251  ARG251     -0.1245
     21  CA       -13.0390   19.6710   36.4040 C.3   251  ARG251      0.1563
     22  C        -13.6670   19.8380   35.0190 C.2   251  ARG251      0.2260
     23  O        -14.7350   19.2830   34.7560 O.2   251  ARG251     -0.2867
     24  CB       -12.0270   18.5360   36.4370 C.3   251  ARG251      0.0307
     25  CG       -11.3640   18.4330   37.7860 C.3   251  ARG251      0.0489
     26  CD       -10.3580   17.3320   37.9450 C.3   251  ARG251      0.2205
     27  NE        -9.8480   17.4010   39.3070 N.pl3 251  ARG251     -0.0865
     28  CZ        -8.9160   18.2480   39.7340 C.cat 251  ARG251      0.5346
     29  NH1       -8.5600   18.2340   41.0130 N.pl3 251  ARG251      0.1354
     30  NH2       -8.3080   19.0850   38.8960 N.pl3 251  ARG251      0.1354
     31  N        -11.5820   19.7430   32.1030 N.3   253  GLY253     -0.1210
     32  CA       -10.5100   19.3570   31.2000 C.3   253  GLY253      0.1956
     33  C         -9.2940   18.9290   32.0110 C.2   253  GLY253      0.2612
     34  O         -9.3730   18.7190   33.2170 O.2   253  GLY253     -0.2717
     35  N         -8.1510   18.8330   31.3440 N.am  254  CYS254     -0.1970
     36  CA        -6.9190   18.3790   31.9830 C.3   254  CYS254      0.1712
     37  C         -6.1090   19.4730   32.6730 C.2   254  CYS254      0.2296
     38  O         -5.0380   19.1890   33.1910 O.2   254  CYS254     -0.2864
     39  CB        -6.0430   17.6450   30.9640 C.3   254  CYS254      0.0983
     40  SG        -6.6980   16.0310   30.5360 S.3   254  CYS254     -0.0798
     41  N          8.3630   13.4360   27.3530 N.3   470  TYR470     -0.1241
     42  CA         6.8930   13.5290   27.3170 C.3   470  TYR470      0.1605
     43  C          6.5070   14.9770   26.9660 C.2   470  TYR470      0.2264
     44  O          6.2140   15.2890   25.8060 O.2   470  TYR470     -0.2867
     45  CB         6.2960   13.0300   28.6450 C.3   470  TYR470      0.0534
     46  CG         4.7880   13.0120   28.7010 C.ar  470  TYR470     -0.0201
     47  CD1        4.0730   11.9870   28.1170 C.ar  470  TYR470     -0.0009
     48  CD2        4.0810   14.0140   29.3500 C.ar  470  TYR470     -0.0009
     49  CE1        2.6850   11.9690   28.1740 C.ar  470  TYR470      0.0417
     50  CE2        2.7090   14.0050   29.4140 C.ar  470  TYR470      0.0417
     51  CZ         2.0050   12.9850   28.8220 C.ar  470  TYR470      0.1957
     52  OH         0.6330   13.0300   28.8970 O.3   470  TYR470     -0.2866
     53  N          0.9560   18.3300   30.1440 N.3   473  PHE473     -0.1241
     54  CA        -0.0490   17.9100   31.1130 C.3   473  PHE473      0.1605
     55  C          0.4250   17.9750   32.5480 C.2   473  PHE473      0.2264
     56  O         -0.1360   17.3150   33.4120 O.2   473  PHE473     -0.2867
     57  CB        -0.6110   16.5250   30.7140 C.3   473  PHE473      0.0534
     58  CG        -1.3280   16.5720   29.4050 C.ar  473  PHE473     -0.0203
     59  CD1       -0.6720   16.3030   28.2310 C.ar  473  PHE473     -0.0042
     60  CD2       -2.6290   17.0160   29.3460 C.ar  473  PHE473     -0.0042
     61  CE1       -1.3090   16.4450   27.0300 C.ar  473  PHE473     -0.0003
     62  CE2       -3.2800   17.1480   28.1460 C.ar  473  PHE473     -0.0003
     63  CZ        -2.6100   16.8570   26.9840 C.ar  473  PHE473     -0.0000
     64  N          2.8930   16.7650   33.8850 N.3   475  ILE475     -0.1245
     65  CA         3.5000   15.5060   34.3290 C.3   475  ILE475      0.1561
     66  C          5.0270   15.6690   34.3680 C.2   475  ILE475      0.2260
     67  O          5.6340   16.1280   33.4150 O.2   475  ILE475     -0.2867
     68  CB         3.0730   14.3360   33.4200 C.3   475  ILE475      0.0252
     69  CG1        1.5640   14.0950   33.5740 C.3   475  ILE475      0.0019
     70  CG2        3.8510   13.0750   33.7490 C.3   475  ILE475      0.0019
     71  CD1        1.0030   13.0120   32.6600 C.3   475  ILE475      0.0001
     72  N          2.0810    8.5070   24.1060 N.3   551  SER551     -0.1202
     73  CA         0.8830    9.3300   24.3000 C.3   551  SER551      0.2020
     74  C          1.1650   10.7730   23.8280 C.2   551  SER551      0.2618
     75  O          1.4940   10.9800   22.6520 O.2   551  SER551     -0.2717
     76  CB         0.3900    9.1980   25.7510 C.3   551  SER551      0.2103
     77  OG        -0.8760    9.7820   25.9000 O.3   551  SER551     -0.2182
     78  N          1.0810   11.7700   24.7040 N.am  552  ASN552     -0.1974
     79  CA         1.6020   13.0870   24.3640 C.3   552  ASN552      0.1688
     80  C          3.1110   13.0220   24.0000 C.2   552  ASN552      0.2292
     81  O          3.5880   13.8320   23.2000 O.2   552  ASN552     -0.2864
     82  CB         1.3330   14.0420   25.5250 C.3   552  ASN552      0.1181
     83  CG         1.9830   15.3720   25.3520 C.2   552  ASN552      0.2629
     84  OD1        1.5780   16.1740   24.5090 O.2   552  ASN552     -0.2716
     85  ND2        3.0020   15.6280   26.1710 N.am  552  ASN552     -0.0877
     86  N         -0.6960   10.7990   19.9870 N.3   577  VAL577     -0.1245
     87  CA        -1.7220   11.6850   19.4280 C.3   577  VAL577      0.1561
     88  C         -1.1790   12.3010   18.1470 C.2   577  VAL577      0.2260
     89  O         -0.2910   13.1470   18.1960 O.2   577  VAL577     -0.2867
     90  CB        -2.0990   12.8160   20.4060 C.3   577  VAL577      0.0252
     91  CG1       -3.3260   13.5620   19.8920 C.3   577  VAL577      0.0019
     92  CG2       -2.3230   12.2840   21.8320 C.3   577  VAL577      0.0019
     93  N        -12.2000   10.8110   25.3050 N.3   588  ILE588     -0.1245
     94  CA       -11.9230   11.8620   26.2940 C.3   588  ILE588      0.1561
     95  C        -11.0470   12.9710   25.7080 C.2   588  ILE588      0.2260
     96  O        -10.6290   13.8670   26.4200 O.2   588  ILE588     -0.2867
     97  CB       -11.2940   11.2430   27.5930 C.3   588  ILE588      0.0252
     98  CG1      -11.3210   12.2020   28.7990 C.3   588  ILE588      0.0019
     99  CG2       -9.8880   10.7650   27.3500 C.3   588  ILE588      0.0019
    100  CD1      -12.6800   12.8040   29.0940 C.3   588  ILE588      0.0001
    101  N        -10.8390   16.7600   26.6120 N.3   591  ALA591     -0.1231
    102  CA       -10.1830   17.2270   27.8150 C.3   591  ALA591      0.1694
    103  C         -8.7970   17.7720   27.5380 C.2   591  ALA591      0.2592
    104  O         -8.2400   18.4630   28.3890 O.2   591  ALA591     -0.2718
    105  CB       -10.0960   16.1220   28.8510 C.3   591  ALA591      0.0304
    106  N         -8.2090   17.4410   26.3860 N.am  592  TRP592     -0.1976
    107  CA        -6.8040   17.8000   26.1300 C.3   592  TRP592      0.1640
    108  C         -6.6560   19.1860   25.5270 C.2   592  TRP592      0.2290
    109  O         -5.5400   19.6660   25.3610 O.2   592  TRP592     -0.2864
    110  CB        -6.0980   16.7840   25.2190 C.3   592  TRP592      0.0576
    111  CG        -6.3250   15.3620   25.6060 C.ar  592  TRP592      0.0006
    112  CD1       -6.6120   14.8690   26.8480 C.ar  592  TRP592      0.0946
    113  CD2       -6.3470   14.2550   24.7180 C.ar  592  TRP592      0.0152
    114  NE1       -6.8170   13.5080   26.7780 N.ar  592  TRP592     -0.2442
    115  CE2       -6.6410   13.1040   25.4850 C.ar  592  TRP592      0.0810
    116  CE3       -6.1290   14.1120   23.3450 C.ar  592  TRP592      0.0012
    117  CZ2       -6.7720   11.8450   24.9040 C.ar  592  TRP592      0.0191
    118  CZ3       -6.2350   12.8470   22.7790 C.ar  592  TRP592      0.0001
    119  CH2       -6.5450   11.7330   23.5610 C.ar  592  TRP592      0.0015
    120  N         -3.5260   21.7460   24.2790 N.3   596  TYR596     -0.1241
    121  CA        -3.2610   21.8390   22.8540 C.3   596  TYR596      0.1605
    122  C         -3.9860   22.9820   22.1420 C.2   596  TYR596      0.2264
    123  O         -3.5530   23.4200   21.0810 O.2   596  TYR596     -0.2867
    124  CB        -3.6780   20.5390   22.1910 C.3   596  TYR596      0.0534
    125  CG        -2.9400   19.2880   22.6110 C.ar  596  TYR596     -0.0201
    126  CD1       -1.5720   19.3010   22.8650 C.ar  596  TYR596     -0.0009
    127  CD2       -3.6130   18.0780   22.7290 C.ar  596  TYR596     -0.0009
    128  CE1       -0.8930   18.1330   23.2080 C.ar  596  TYR596      0.0417
    129  CE2       -2.9450   16.9150   23.0570 C.ar  596  TYR596      0.0417
    130  CZ        -1.5890   16.9390   23.3020 C.ar  596  TYR596      0.1957
    131  OH        -0.9310   15.7760   23.6330 O.3   596  TYR596     -0.2866
    132  N         -8.1270    5.6620   25.3070 N.3   640  ARG640     -0.1231
    133  CA        -7.6100    6.9510   25.7830 C.3   640  ARG640      0.1694
    134  C         -7.1900    7.7750   24.5770 C.2   640  ARG640      0.2591
    135  O         -7.7140    8.8680   24.3610 O.2   640  ARG640     -0.2718
    136  CB        -6.4490    6.7810   26.7610 C.3   640  ARG640      0.0321
    137  CG        -5.9660    8.1160   27.3690 C.3   640  ARG640      0.0489
    138  CD        -6.9400    8.7240   28.3700 C.3   640  ARG640      0.2205
    139  NE        -7.1100    7.8320   29.5060 N.pl3 640  ARG640     -0.0865
    140  CZ        -6.3430    7.8020   30.5890 C.cat 640  ARG640      0.5346
    141  NH1       -5.3360    8.6510   30.7530 N.pl3 640  ARG640      0.1354
    142  NH2       -6.5860    6.9020   31.5380 N.pl3 640  ARG640      0.1354
    143  N         -6.2730    7.2270   23.7770 N.am  641  VAL641     -0.1980
    144  CA        -5.8740    7.7920   22.4870 C.3   641  VAL641      0.1595
    145  C         -6.3040    6.7980   21.4040 C.2   641  VAL641      0.2287
    146  O         -5.6270    5.7980   21.1750 O.2   641  VAL641     -0.2864
    147  CB        -4.3540    8.0440   22.4410 C.3   641  VAL641      0.0276
    148  CG1       -3.9560    8.5960   21.0790 C.3   641  VAL641      0.0022
    149  CG2       -3.9300    9.0380   23.5440 C.3   641  VAL641      0.0022
    150  N         -4.3380    1.7070   26.3940 N.3   677  HIS677     -0.1241
    151  CA        -3.3570    2.7800   26.4640 C.3   677  HIS677      0.1621
    152  C         -2.0830    2.4130   27.2300 C.2   677  HIS677      0.2264
    153  O         -1.0200    2.9550   26.9410 O.2   677  HIS677     -0.2867
    154  CB        -4.0010    4.0040   27.0770 C.3   677  HIS677      0.0745
    155  CG        -3.2540    5.2630   26.8170 C.ar  677  HIS677      0.0817
    156  ND1       -2.9810    5.7090   25.5400 N.ar  677  HIS677     -0.2268
    157  CD2       -2.7310    6.1820   27.6670 C.ar  677  HIS677      0.1154
    158  CE1       -2.3140    6.8520   25.6210 C.ar  677  HIS677      0.1986
    159  NE2       -2.1640    7.1680   26.8960 N.ar  677  HIS677     -0.2212
@<TRIPOS>BOND
     1    88    89    2
     2    88    87    1
     3    87    86    1
     4    87    90    1
     5    91    90    1
     6    90    92    1
     7   148   147    1
     8   123   122    2
     9   146   145    2
    10   145   144    1
    11   122   121    1
    12   124   125    1
    13   124   121    1
    14   147   144    1
    15   147   149    1
    16   144   143    1
    17   125   127   ar
    18   125   126   ar
    19    75    74    2
    20   127   129   ar
    21   118   116   ar
    22   118   119   ar
    23   121   120    1
    24   126   128   ar
    25   129   130   ar
    26    81    80    2
    27   128   130   ar
    28   130   131    1
    29   116   113   ar
    30   119   117   ar
    31   143   134   am
    32    74    73    1
    33    74    78   am
    34    80    79    1
    35    72    73    1
    36    73    76    1
    37   135   134    2
    38    79    78    1
    39    79    82    1
    40    84    83    2
    41   134   133    1
    42   113   115   ar
    43   113   111   ar
    44   117   115   ar
    45   110   111    1
    46   110   107    1
    47    93    94    1
    48   132   133    1
    49    83    82    1
    50    83    85   am
    51   109   108    2
    52   115   114   ar
    53   108   107    1
    54   156   158   ar
    55   156   155   ar
    56   111   112   ar
    57   158   159   ar
    58    95    94    1
    59    95    96    2
    60    76    77    1
    61   133   136    1
    62    44    43    2
    63   107   106    1
    64    94    97    1
    65   106   103   am
    66   150   151    1
    67   151   154    1
    68   151   152    1
    69   101   102    1
    70   136   137    1
    71   114   112   ar
    72   155   154    1
    73   155   157   ar
    74   159   157   ar
    75   153   152    2
    76    43    42    1
    77    63    61   ar
    78    63    62   ar
    79    61    59   ar
    80    42    41    1
    81    42    45    1
    82    99    97    1
    83   137   138    1
    84   103   102    1
    85   103   104    2
    86    97    98    1
    87   102   105    1
    88    47    49   ar
    89    47    46   ar
    90    62    60   ar
    91    49    51   ar
    92    59    58   ar
    93   138   139    1
    94    45    46    1
    95    46    48   ar
    96    98   100    1
    97    51    52    1
    98    51    50   ar
    99    60    58   ar
   100    48    50   ar
   101    58    57    1
   102   139   140    2
   103    53    54    1
   104    11    10   ar
   105    11     9   ar
   106    10     8   ar
   107    40    39    1
   108   140   141    1
   109   140   142    1
   110    57    54    1
   111    39    36    1
   112    54    55    1
   113    32    33    1
   114    32    31    1
   115    35    36    1
   116    35    33   am
   117     9     7   ar
   118     8     6   ar
   119    36    37    1
   120    33    34    2
   121    55    56    2
   122    71    69    1
   123    37    38    2
   124     7     6   ar
   125     6     5    1
   126    18    19    1
   127    18    17    1
   128    67    66    2
   129    68    69    1
   130    68    70    1
   131    68    65    1
   132    17    16    1
   133    64    65    1
   134     5     2    1
   135    65    66    1
   136     1     2    1
   137    23    22    2
   138    12    13    1
   139    22    21    1
   140    16    13    1
   141     2     3    1
   142    13    14    1
   143     3     4    2
   144    21    24    1
   145    21    20    1
   146    24    25    1
   147    14    15    2
   148    25    26    1
   149    26    27    1
   150    30    28    1
   151    27    28    2
   152    28    29    1
