@<TRIPOS>MOLECULE
tmp/3ddwB07.pdb
 92 86 0 0 0
SMALL
GASTEIGER

@<TRIPOS>ATOM
      1  N         86.1860 -106.5360   92.2610 N.3    78  ILE78      -0.1245
      2  CA        86.0720 -107.2380   90.9830 C.3    78  ILE78       0.1561
      3  C         87.3670 -107.1750   90.1860 C.2    78  ILE78       0.2260
      4  O         87.8750 -108.2030   89.7260 O.2    78  ILE78      -0.2867
      5  CB        84.8610 -106.7200   90.1600 C.3    78  ILE78       0.0252
      6  CG1       83.5720 -107.1690   90.8430 C.3    78  ILE78       0.0019
      7  CG2       84.9050 -107.2330   88.7110 C.3    78  ILE78       0.0019
      8  CD1       82.3280 -106.5530   90.2820 C.3    78  ILE78       0.0001
      9  N         84.4430 -112.7350   95.3370 N.3    84  ASN84      -0.1240
     10  CA        83.8850 -113.9530   95.8980 C.3    84  ASN84       0.1653
     11  C         84.4780 -114.2510   97.2870 C.2    84  ASN84       0.2266
     12  O         83.7500 -114.6130   98.2130 O.2    84  ASN84      -0.2867
     13  CB        84.1080 -115.1480   94.9440 C.3    84  ASN84       0.1155
     14  CG        83.6240 -114.8760   93.5100 C.2    84  ASN84       0.2627
     15  OD1       84.2240 -114.0630   92.7670 O.2    84  ASN84      -0.2716
     16  ND2       82.5820 -115.5860   93.0970 N.am   84  ASN84      -0.0877
     17  N         91.6320 -104.2540   85.2830 N.3   211  TYR211     -0.1241
     18  CA        90.9410 -105.5320   85.4930 C.3   211  TYR211      0.1605
     19  C         91.9330 -106.6910   85.3680 C.2   211  TYR211      0.2264
     20  O         92.4920 -106.9220   84.2850 O.2   211  TYR211     -0.2867
     21  CB        89.7850 -105.7200   84.5030 C.3   211  TYR211      0.0534
     22  CG        89.0990 -107.0540   84.6560 C.ar  211  TYR211     -0.0201
     23  CD1       88.2300 -107.3060   85.7220 C.ar  211  TYR211     -0.0009
     24  CD2       89.3380 -108.0800   83.7500 C.ar  211  TYR211     -0.0009
     25  CE1       87.6230 -108.5480   85.8690 C.ar  211  TYR211      0.0417
     26  CE2       88.7330 -109.3100   83.8840 C.ar  211  TYR211      0.0417
     27  CZ        87.8800 -109.5400   84.9380 C.ar  211  TYR211      0.1957
     28  OH        87.2800 -110.7720   85.0390 O.3   211  TYR211     -0.2866
     29  N         79.9960 -106.8980   84.5140 N.3   463  LEU463     -0.1245
     30  CA        80.4290 -107.7710   85.6080 C.3   463  LEU463      0.1561
     31  C         79.8950 -107.3110   86.9530 C.2   463  LEU463      0.2260
     32  O         79.4180 -108.1200   87.7560 O.2   463  LEU463     -0.2867
     33  CB        81.9450 -107.8610   85.7240 C.3   463  LEU463      0.0270
     34  CG        82.8150 -108.3930   84.5940 C.3   463  LEU463      0.0019
     35  CD1       84.0490 -109.1180   85.1770 C.3   463  LEU463      0.0001
     36  CD2       82.0750 -109.2180   83.5580 C.3   463  LEU463      0.0001
     37  N         76.6820 -111.7440   83.2880 N.3   470  ALA470     -0.1231
     38  CA        78.1010 -111.9760   83.0980 C.3   470  ALA470      0.1694
     39  C         78.4430 -113.4640   83.2560 C.2   470  ALA470      0.2591
     40  O         79.2030 -114.0100   82.4560 O.2   470  ALA470     -0.2718
     41  CB        78.9280 -111.1220   84.0870 C.3   470  ALA470      0.0304
     42  N         77.8650 -114.0920   84.2780 N.am  471  GLU471     -0.1979
     43  CA        78.0230 -115.5300   84.5660 C.3   471  GLU471      0.1602
     44  C         77.4990 -116.3970   83.4210 C.2   471  GLU471      0.2287
     45  O         78.1910 -117.3090   82.9590 O.2   471  GLU471     -0.2864
     46  CB        77.2670 -115.8880   85.8510 C.3   471  GLU471      0.0415
     47  CG        77.5160 -117.3240   86.3690 C.3   471  GLU471      0.1163
     48  CD        76.5830 -117.7160   87.5070 C.2   471  GLU471      0.3649
     49  OE1       76.0960 -116.8260   88.2360 O.co2 471  GLU471     -0.2457
     50  OE2       76.3160 -118.9230   87.6750 O.co2 471  GLU471     -0.2457
     51  N         79.6850 -116.0860   80.4250 N.3   474  ALA474     -0.1231
     52  CA        80.9590 -116.7550   80.6980 C.3   474  ALA474      0.1694
     53  C         80.8120 -118.2620   80.5710 C.2   474  ALA474      0.2591
     54  O         81.6800 -118.9420   80.0140 O.2   474  ALA474     -0.2718
     55  CB        81.4610 -116.4050   82.0750 C.3   474  ALA474      0.0304
     56  N         79.7050 -118.7780   81.0850 N.am  475  GLU475     -0.1979
     57  CA        79.4440 -120.2130   81.0200 C.3   475  GLU475      0.1602
     58  C         79.3850 -120.7250   79.5800 C.2   475  GLU475      0.2287
     59  O         79.7940 -121.8530   79.3130 O.2   475  GLU475     -0.2864
     60  CB        78.1640 -120.5430   81.7850 C.3   475  GLU475      0.0415
     61  CG        78.3680 -120.4870   83.2960 C.3   475  GLU475      0.1163
     62  CD        77.0750 -120.3740   84.1040 C.2   475  GLU475      0.3649
     63  OE1       75.9750 -120.1970   83.5290 O.co2 475  GLU475     -0.2457
     64  OE2       77.1700 -120.4540   85.3460 O.co2 475  GLU475     -0.2457
     65  N         85.5630 -116.3150   79.6010 N.3   479  GLU479     -0.1245
     66  CA        85.6360 -114.9500   80.1320 C.3   479  GLU479      0.1567
     67  C         86.5560 -113.9910   79.3670 C.2   479  GLU479      0.2260
     68  O         86.7750 -112.8560   79.8040 O.2   479  GLU479     -0.2867
     69  CB        85.9640 -114.9650   81.6300 C.3   479  GLU479      0.0388
     70  CG        87.2390 -115.6750   82.0160 C.3   479  GLU479      0.1160
     71  CD        87.5770 -115.5120   83.5010 C.2   479  GLU479      0.3649
     72  OE1       86.7400 -114.9540   84.2480 O.co2 479  GLU479     -0.2457
     73  OE2       88.6830 -115.9380   83.9150 O.co2 479  GLU479     -0.2457
     74  N         85.7880 -112.3350   76.8620 N.3   481  TYR481     -0.1227
     75  CA        84.9880 -111.1640   76.4970 C.3   481  TYR481      0.1736
     76  C         85.2130 -109.9630   77.4200 C.2   481  TYR481      0.2595
     77  O         85.0720 -108.8270   76.9900 O.2   481  TYR481     -0.2718
     78  CB        83.4860 -111.4840   76.4300 C.3   481  TYR481      0.0548
     79  CG        82.8160 -111.6400   77.7690 C.ar  481  TYR481     -0.0200
     80  CD1       82.2890 -110.5350   78.4430 C.ar  481  TYR481     -0.0009
     81  CD2       82.6910 -112.8940   78.3650 C.ar  481  TYR481     -0.0009
     82  CE1       81.6660 -110.6750   79.6620 C.ar  481  TYR481      0.0417
     83  CE2       82.0810 -113.0440   79.5840 C.ar  481  TYR481      0.0417
     84  CZ        81.5630 -111.9280   80.2320 C.ar  481  TYR481      0.1957
     85  OH        80.9500 -112.0580   81.4460 O.3   481  TYR481     -0.2866
     86  N         85.5640 -110.2020   78.6800 N.am  482  VAL482     -0.1980
     87  CA        85.7250 -109.0830   79.6070 C.3   482  VAL482      0.1595
     88  C         86.7960 -108.1080   79.1120 C.2   482  VAL482      0.2287
     89  O         86.5870 -106.8940   79.1540 O.2   482  VAL482     -0.2864
     90  CB        86.0410 -109.5080   81.0410 C.3   482  VAL482      0.0276
     91  CG1       86.0060 -108.2620   81.9570 C.3   482  VAL482      0.0022
     92  CG2       85.0450 -110.5620   81.5310 C.3   482  VAL482      0.0022
@<TRIPOS>BOND
     1    78    75    1
     2    78    79    1
     3    75    74    1
     4    75    76    1
     5    77    76    2
     6    76    86   am
     7    79    81   ar
     8    79    80   ar
     9    81    83   ar
    10    80    82   ar
    11    86    87    1
    12    88    89    2
    13    88    87    1
    14    59    58    2
    15    67    68    2
    16    67    66    1
    17    58    57    1
    18    83    84   ar
    19    65    66    1
    20    87    90    1
    21    82    84   ar
    22    54    53    2
    23    66    69    1
    24    84    85    1
    25    51    52    1
    26    53    52    1
    27    53    56   am
    28    52    55    1
    29    57    56    1
    30    57    60    1
    31    90    92    1
    32    90    91    1
    33    69    70    1
    34    60    61    1
    35    70    71    1
    36    40    39    2
    37    45    44    2
    38    38    39    1
    39    38    37    1
    40    38    41    1
    41    39    42   am
    42    61    62    1
    43    44    43    1
    44    71    73   ar
    45    71    72   ar
    46    63    62   ar
    47    36    34    1
    48    24    26   ar
    49    24    22   ar
    50    26    27   ar
    51    62    64   ar
    52    42    43    1
    53    20    19    2
    54    21    22    1
    55    21    18    1
    56    29    30    1
    57    43    46    1
    58    34    35    1
    59    34    33    1
    60    22    23   ar
    61    27    28    1
    62    27    25   ar
    63    17    18    1
    64    19    18    1
    65    30    33    1
    66    30    31    1
    67    23    25   ar
    68    46    47    1
    69    47    48    1
    70    31    32    2
    71    48    50   ar
    72    48    49   ar
    73     7     5    1
    74     4     3    2
    75     5     6    1
    76     5     2    1
    77     3     2    1
    78     8     6    1
    79     2     1    1
    80    15    14    2
    81    16    14   am
    82    14    13    1
    83    13    10    1
    84     9    10    1
    85    10    11    1
    86    11    12    2
