@<TRIPOS>MOLECULE
tmp/3ddwB06.pdb
 166 158 0 0 0
SMALL
GASTEIGER

@<TRIPOS>ATOM
      1  N        100.1900 -100.6500   93.0630 N.3    45  TRP45      -0.1227
      2  CA       100.1350  -99.2040   92.8720 C.3    45  TRP45       0.1737
      3  C        101.5480  -98.6150   92.9040 C.2    45  TRP45       0.2595
      4  O        101.9450  -97.8720   92.0000 O.2    45  TRP45      -0.2718
      5  CB        99.2340  -98.5730   93.9370 C.3    45  TRP45       0.0564
      6  CG        98.7180  -97.2040   93.6110 C.ar   45  TRP45       0.0003
      7  CD1       98.8410  -96.5310   92.4320 C.ar   45  TRP45       0.0946
      8  CD2       97.9480  -96.3710   94.4680 C.ar   45  TRP45       0.0152
      9  NE1       98.2120  -95.3190   92.5140 N.ar   45  TRP45      -0.2442
     10  CE2       97.6430  -95.1970   93.7510 C.ar   45  TRP45       0.0810
     11  CE3       97.4770  -96.5040   95.7770 C.ar   45  TRP45       0.0012
     12  CZ2       96.9060  -94.1560   94.3020 C.ar   45  TRP45       0.0191
     13  CZ3       96.7410  -95.4630   96.3230 C.ar   45  TRP45       0.0001
     14  CH2       96.4640  -94.3080   95.5830 C.ar   45  TRP45       0.0015
     15  N        102.3060  -98.9600   93.9450 N.am   46  ILE46      -0.1980
     16  CA       103.6790  -98.4880   94.0880 C.3    46  ILE46       0.1595
     17  C        104.5650  -99.0160   92.9470 C.2    46  ILE46       0.2287
     18  O        105.3370  -98.2580   92.3560 O.2    46  ILE46      -0.2864
     19  CB       104.2620  -98.8800   95.4660 C.3    46  ILE46       0.0276
     20  CG1      103.5830  -98.0740   96.5780 C.3    46  ILE46       0.0022
     21  CG2      105.7790  -98.6450   95.5100 C.3    46  ILE46       0.0022
     22  CD1      103.7650  -98.6450   97.9880 C.3    46  ILE46       0.0001
     23  N        104.0420  -97.1680   89.5850 N.3    49  GLN49      -0.1231
     24  CA       104.7970  -95.9070   89.5570 C.3    49  GLN49       0.1698
     25  C        106.2830  -96.1410   89.2790 C.2    49  GLN49       0.2592
     26  O        106.9170  -95.3910   88.5190 O.2    49  GLN49      -0.2718
     27  CB       104.6540  -95.1660   90.8900 C.3    49  GLN49       0.0381
     28  CG       103.2600  -94.6590   91.1590 C.3    49  GLN49       0.0905
     29  CD       102.8010  -93.6750   90.1160 C.2    49  GLN49       0.2608
     30  OE1      102.1540  -94.0530   89.1440 O.2    49  GLN49      -0.2717
     31  NE2      103.1650  -92.3860   90.2930 N.am   49  GLN49      -0.0878
     32  N        106.8290  -97.1810   89.8940 N.am   50  GLN50      -0.1979
     33  CA       108.2350  -97.5310   89.6750 C.3    50  GLN50       0.1601
     34  C        108.4590  -97.9560   88.2290 C.2    50  GLN50       0.2287
     35  O        109.4080  -97.5110   87.5870 O.2    50  GLN50      -0.2864
     36  CB       108.6970  -98.6220   90.6380 C.3    50  GLN50       0.0394
     37  CG       110.1570  -99.0270   90.4020 C.3    50  GLN50       0.0908
     38  CD       110.6910  -99.9950   91.4360 C.2    50  GLN50       0.2608
     39  OE1      109.9430 -100.7500   92.0490 O.2    50  GLN50      -0.2717
     40  NE2      112.0040  -99.9930   91.6130 N.am   50  GLN50      -0.0878
     41  N        108.4700  -94.9710   85.9040 N.3    53  TYR53      -0.1227
     42  CA       109.7280  -94.2590   86.0670 C.3    53  TYR53       0.1736
     43  C        110.8920  -95.0390   85.4020 C.2    53  TYR53       0.2595
     44  O        111.7050  -94.4650   84.6700 O.2    53  TYR53      -0.2718
     45  CB       110.0310  -94.0130   87.5550 C.3    53  TYR53       0.0548
     46  CG       111.4320  -93.4800   87.7490 C.ar   53  TYR53      -0.0200
     47  CD1      111.7270  -92.1470   87.4720 C.ar   53  TYR53      -0.0009
     48  CD2      112.4640  -94.3160   88.1450 C.ar   53  TYR53      -0.0009
     49  CE1      113.0210  -91.6570   87.6070 C.ar   53  TYR53       0.0417
     50  CE2      113.7600  -93.8350   88.2840 C.ar   53  TYR53       0.0417
     51  CZ       114.0270  -92.5100   88.0180 C.ar   53  TYR53       0.1957
     52  OH       115.3140  -92.0400   88.1590 O.3    53  TYR53      -0.2866
     53  N        110.9630  -96.3380   85.6630 N.am   54  ASP54      -0.1974
     54  CA       112.0450  -97.1720   85.1350 C.3    54  ASP54       0.1709
     55  C        112.0330  -97.2560   83.6070 C.2    54  ASP54       0.2293
     56  O        113.0800  -97.0950   82.9720 O.2    54  ASP54      -0.2864
     57  CB       111.9830  -98.5860   85.7110 C.3    54  ASP54       0.1436
     58  CG       112.4630  -98.6590   87.1380 C.2    54  ASP54       0.3671
     59  OD1      113.1150  -97.7040   87.6090 O.co2  54  ASP54      -0.2456
     60  OD2      112.2010  -99.6930   87.7910 O.co2  54  ASP54      -0.2456
     61  N        103.3590  -91.0580   78.5570 N.3    59  ARG59      -0.1245
     62  CA       102.2450  -90.9560   79.4990 C.3    59  ARG59       0.1563
     63  C        101.0620  -90.2310   78.8930 C.2    59  ARG59       0.2260
     64  O        101.2410  -89.2780   78.1300 O.2    59  ARG59      -0.2867
     65  CB       102.6900  -90.2090   80.7440 C.3    59  ARG59       0.0307
     66  CG       103.7070  -90.9630   81.5680 C.3    59  ARG59       0.0489
     67  CD       104.1720  -90.1050   82.7030 C.3    59  ARG59       0.2205
     68  NE       105.3010  -90.7000   83.4100 N.pl3  59  ARG59      -0.0865
     69  CZ       105.2290  -91.4200   84.5230 C.cat  59  ARG59       0.5346
     70  NH1      104.0610  -91.6880   85.1120 N.pl3  59  ARG59       0.1354
     71  NH2      106.3610  -91.8660   85.0730 N.pl3  59  ARG59       0.1354
     72  N         97.1200  -91.0790   83.7260 N.3   133  TYR133     -0.1241
     73  CA        96.5770  -90.4830   84.9380 C.3   133  TYR133      0.1605
     74  C         95.3970  -89.5900   84.5940 C.2   133  TYR133      0.2264
     75  O         95.4210  -88.8390   83.6080 O.2   133  TYR133     -0.2867
     76  CB        97.5950  -89.6270   85.7070 C.3   133  TYR133      0.0534
     77  CG        98.8490  -90.3350   86.1980 C.ar  133  TYR133     -0.0201
     78  CD1       98.9020  -91.7220   86.3810 C.ar  133  TYR133     -0.0009
     79  CD2       99.9740  -89.6040   86.5090 C.ar  133  TYR133     -0.0009
     80  CE1      100.0650  -92.3430   86.8300 C.ar  133  TYR133      0.0417
     81  CE2      101.1240  -90.2040   86.9500 C.ar  133  TYR133      0.0417
     82  CZ       101.1820  -91.5630   87.1110 C.ar  133  TYR133      0.1957
     83  OH       102.3790  -92.1170   87.5520 O.3   133  TYR133     -0.2866
     84  N         98.3410  -85.8930   99.3350 N.3   171  ARG171     -0.1245
     85  CA        99.7690  -85.7330   99.1810 C.3   171  ARG171      0.1563
     86  C        100.1290  -84.2290   99.2660 C.2   171  ARG171      0.2260
     87  O        100.5700  -83.6370   98.2790 O.2   171  ARG171     -0.2867
     88  CB       100.2510  -86.2950   97.8440 C.3   171  ARG171      0.0307
     89  CG        99.6910  -87.6410   97.4270 C.3   171  ARG171      0.0489
     90  CD       100.5290  -88.7750   97.9040 C.3   171  ARG171      0.2205
     91  NE       100.2500  -90.0180   97.1840 N.pl3 171  ARG171     -0.0865
     92  CZ       100.5700  -91.2240   97.6390 C.cat 171  ARG171      0.5346
     93  NH1      101.1570  -91.3540   98.8130 N.pl3 171  ARG171      0.1354
     94  NH2      100.2760  -92.3030   96.9310 N.pl3 171  ARG171      0.1354
     95  N        103.1480  -82.5790   97.4760 N.3   174  PHE174     -0.1241
     96  CA       103.0960  -82.2690   96.0550 C.3   174  PHE174      0.1605
     97  C        102.1980  -81.0630   95.7700 C.2   174  PHE174      0.2264
     98  O        101.8660  -80.7920   94.6190 O.2   174  PHE174     -0.2867
     99  CB       102.6160  -83.4990   95.2880 C.3   174  PHE174      0.0534
    100  CG       103.5790  -84.6680   95.3540 C.ar  174  PHE174     -0.0203
    101  CD1      104.9250  -84.4970   95.0460 C.ar  174  PHE174     -0.0042
    102  CD2      103.1340  -85.9310   95.7020 C.ar  174  PHE174     -0.0042
    103  CE1      105.8200  -85.5700   95.0940 C.ar  174  PHE174     -0.0003
    104  CE2      104.0170  -87.0070   95.7610 C.ar  174  PHE174     -0.0003
    105  CZ       105.3670  -86.8200   95.4500 C.ar  174  PHE174     -0.0000
    106  N         95.2070  -88.5740   95.7450 N.3   205  ASP205     -0.1239
    107  CA        95.3910  -89.6960   94.8220 C.3   205  ASP205      0.1674
    108  C         94.4450  -90.8540   95.1270 C.2   205  ASP205      0.2266
    109  O         94.3830  -91.3270   96.2590 O.2   205  ASP205     -0.2867
    110  CB        96.8180  -90.2100   94.8950 C.3   205  ASP205      0.1410
    111  CG        97.8130  -89.2470   94.2770 C.2   205  ASP205      0.3668
    112  OD1       97.3910  -88.3460   93.5230 O.co2 205  ASP205     -0.2456
    113  OD2       99.0100  -89.3920   94.5620 O.co2 205  ASP205     -0.2456
    114  N         96.4970  -93.8850   88.5600 N.3   218  THR218     -0.1218
    115  CA        96.1090  -92.8810   89.5490 C.3   218  THR218      0.1862
    116  C         95.1410  -91.8590   88.9660 C.2   218  THR218      0.2287
    117  O         95.2640  -91.4610   87.8060 O.2   218  THR218     -0.2866
    118  CB        97.3730  -92.1600   90.0430 C.3   218  THR218      0.1770
    119  OG1       98.2600  -93.1150   90.6100 O.3   218  THR218     -0.2211
    120  CG2       97.0620  -91.0870   91.0840 C.3   218  THR218      0.0375
    121  N         94.3570  -88.2040   90.1300 N.3   220  ARG220     -0.1245
    122  CA        94.8400  -87.1460   91.0160 C.3   220  ARG220      0.1563
    123  C         93.8940  -85.9620   90.9370 C.2   220  ARG220      0.2260
    124  O         93.7090  -85.3400   89.8800 O.2   220  ARG220     -0.2867
    125  CB        96.2880  -86.7620   90.6620 C.3   220  ARG220      0.0307
    126  CG        96.8070  -85.5640   91.4140 C.3   220  ARG220      0.0489
    127  CD        98.3260  -85.4980   91.3860 C.3   220  ARG220      0.2205
    128  NE        98.9380  -86.5070   92.2590 N.pl3 220  ARG220     -0.0865
    129  CZ       100.2550  -86.6340   92.4530 C.cat 220  ARG220      0.5346
    130  NH1      101.1110  -85.8130   91.8500 N.pl3 220  ARG220      0.1354
    131  NH2      100.7260  -87.5920   93.2540 N.pl3 220  ARG220      0.1354
    132  N        102.4530  -80.1290   87.6090 N.3   281  ASP281     -0.1239
    133  CA       102.7270  -81.4750   88.0870 C.3   281  ASP281      0.1674
    134  C        103.3290  -82.3410   86.9780 C.2   281  ASP281      0.2266
    135  O        104.2910  -83.0540   87.1890 O.2   281  ASP281     -0.2867
    136  CB       101.4320  -82.0960   88.6470 C.3   281  ASP281      0.1410
    137  CG       101.6990  -83.2560   89.6010 C.2   281  ASP281      0.3668
    138  OD1      102.6050  -83.1540   90.4560 O.co2 281  ASP281     -0.2456
    139  OD2      100.9890  -84.2700   89.5080 O.co2 281  ASP281     -0.2456
    140  N        106.8900  -81.1220   86.3190 N.3   284  ARG284     -0.1231
    141  CA       107.7170  -81.6530   87.4050 C.3   284  ARG284      0.1694
    142  C        108.0650  -83.1310   87.2120 C.2   284  ARG284      0.2591
    143  O        109.2130  -83.5270   87.4040 O.2   284  ARG284     -0.2718
    144  CB       107.0230  -81.4680   88.7500 C.3   284  ARG284      0.0321
    145  CG       107.7400  -82.1440   89.8970 C.3   284  ARG284      0.0489
    146  CD       107.2640  -81.6480   91.2270 C.3   284  ARG284      0.2205
    147  NE       105.8260  -81.8140   91.3970 N.pl3 284  ARG284     -0.0865
    148  CZ       105.1390  -81.3640   92.4420 C.cat 284  ARG284      0.5346
    149  NH1      105.7600  -80.7150   93.4220 N.pl3 284  ARG284      0.1354
    150  NH2      103.8290  -81.5690   92.5150 N.pl3 284  ARG284      0.1354
    151  N        107.0700  -83.9510   86.8650 N.am  285  ARG285     -0.1980
    152  CA       107.3040  -85.3790   86.6520 C.3   285  ARG285      0.1597
    153  C        108.2070  -85.5950   85.4300 C.2   285  ARG285      0.2287
    154  O        109.0980  -86.4570   85.4580 O.2   285  ARG285     -0.2864
    155  CB       105.9820  -86.1440   86.5010 C.3   285  ARG285      0.0334
    156  CG       106.1340  -87.6570   86.4050 C.3   285  ARG285      0.0492
    157  CD       104.7850  -88.3750   86.3700 C.3   285  ARG285      0.2205
    158  NE       104.0140  -88.1160   87.5840 N.pl3 285  ARG285     -0.0865
    159  CZ       103.0000  -87.2600   87.6820 C.cat 285  ARG285      0.5346
    160  NH1      102.5580  -86.5850   86.6290 N.pl3 285  ARG285      0.1354
    161  NH2      102.4120  -87.0930   88.8590 N.pl3 285  ARG285      0.1354
    162  N        111.8150  -84.8090   86.3620 N.3   288  ALA288     -0.1245
    163  CA       112.3570  -85.7960   87.2770 C.3   288  ALA288      0.1562
    164  C        112.6220  -87.1160   86.5620 C.2   288  ALA288      0.2260
    165  O        113.2340  -88.0140   87.1340 O.2   288  ALA288     -0.2867
    166  CB       111.3950  -86.0190   88.4600 C.3   288  ALA288      0.0290
@<TRIPOS>BOND
     1    64    63    2
     2    61    62    1
     3    63    62    1
     4    62    65    1
     5    65    66    1
     6    66    67    1
     7    67    68    1
     8    56    55    2
     9    68    69    2
    10    55    54    1
    11    75    74    2
    12    72    73    1
    13    69    71    1
    14    69    70    1
    15    74    73    1
    16    44    43    2
    17    73    76    1
    18    54    53    1
    19    54    57    1
    20    43    53   am
    21    43    42    1
    22   153   154    2
    23   153   152    1
    24    76    77    1
    25    57    58    1
    26    41    42    1
    27    42    45    1
    28    77    78   ar
    29    77    79   ar
    30   140   141    1
    31   162   163    1
    32   157   156    1
    33   157   158    1
    34    78    80   ar
    35   156   155    1
    36   155   152    1
    37    79    81   ar
    38   164   165    2
    39   164   163    1
    40   160   159    1
    41   152   151    1
    42    80    82   ar
    43   151   142   am
    44    81    82   ar
    45   134   135    2
    46   134   133    1
    47    82    83    1
    48    58    59   ar
    49    58    60   ar
    50   142   143    2
    51   142   141    1
    52   163   166    1
    53   141   144    1
    54    47    49   ar
    55    47    46   ar
    56    45    46    1
    57   158   159    2
    58    35    34    2
    59    49    51   ar
    60   132   133    1
    61   159   161    1
    62    46    48   ar
    63   117   116    2
    64    51    52    1
    65    51    50   ar
    66   133   136    1
    67    48    50   ar
    68    34    33    1
    69    26    25    2
    70   114   115    1
    71   136   137    1
    72   144   145    1
    73   116   115    1
    74    30    29    2
    75    25    24    1
    76    25    32   am
    77   139   137   ar
    78   115   118    1
    79    24    23    1
    80    24    27    1
    81   137   138   ar
    82    33    32    1
    83    33    36    1
    84   124   123    2
    85   145   146    1
    86   118   119    1
    87   118   120    1
    88    29    31   am
    89    29    28    1
    90   121   122    1
    91    37    36    1
    92    37    38    1
    93   125   122    1
    94   125   126    1
    95    27    28    1
    96   123   122    1
    97   146   147    1
    98   127   126    1
    99   127   128    1
   100   147   148    2
   101    38    40   am
   102    38    39    2
   103   130   129    1
   104     4     3    2
   105   128   129    2
   106    18    17    2
   107     7     9   ar
   108     7     6   ar
   109   148   150    1
   110   148   149    1
   111   129   131    1
   112     9    10   ar
   113     2     3    1
   114     2     1    1
   115     2     5    1
   116     3    15   am
   117    17    16    1
   118   112   111   ar
   119     6     5    1
   120     6     8   ar
   121    10    12   ar
   122    10     8   ar
   123    15    16    1
   124    16    19    1
   125   111   113   ar
   126   111   110    1
   127    12    14   ar
   128     8    11   ar
   129    98    97    2
   130   107   110    1
   131   107   108    1
   132   107   106    1
   133   101   103   ar
   134   101   100   ar
   135   103   105   ar
   136   108   109    2
   137    99   100    1
   138    99    96    1
   139   100   102   ar
   140   105   104   ar
   141    19    21    1
   142    19    20    1
   143    14    13   ar
   144   102   104   ar
   145    97    96    1
   146    11    13   ar
   147    96    95    1
   148    20    22    1
   149    94    92    1
   150    91    92    2
   151    91    90    1
   152    89    88    1
   153    89    90    1
   154    92    93    1
   155    88    85    1
   156    87    86    2
   157    85    86    1
   158    85    84    1
