@<TRIPOS>MOLECULE
tmp/3ddwB04.pdb
 85 81 0 0 0
SMALL
GASTEIGER

@<TRIPOS>ATOM
      1  N         66.0310  -84.6700   95.8650 N.3   147  LYS147     -0.1231
      2  CA        64.8230  -85.1470   96.5520 C.3   147  LYS147      0.1693
      3  C         63.6200  -84.6550   95.7670 C.2   147  LYS147      0.2592
      4  O         63.7180  -83.6710   95.0380 O.2   147  LYS147     -0.2718
      5  CB        64.7660  -84.5990   97.9780 C.3   147  LYS147      0.0285
      6  CG        65.9590  -84.9360   98.8530 C.3   147  LYS147      0.0035
      7  CD        65.8780  -86.3340   99.4040 C.3   147  LYS147      0.0206
      8  CE        66.8810  -86.5420  100.5400 C.3   147  LYS147      0.1093
      9  NZ        66.3790  -85.9610  101.8360 N.3   147  LYS147     -0.1314
     10  N         62.4870  -85.3370   95.8950 N.am  148  ILE148     -0.1966
     11  CA        61.2410  -84.8480   95.2990 C.3   148  ILE148      0.1727
     12  C         60.3140  -84.4620   96.4410 C.2   148  ILE148      0.2616
     13  O         60.0450  -85.2800   97.3190 O.2   148  ILE148     -0.2715
     14  CB        60.5550  -85.8880   94.3970 C.3   148  ILE148      0.0290
     15  CG1       61.4600  -86.2850   93.2170 C.3   148  ILE148      0.0022
     16  CG2       59.2010  -85.3610   93.8900 C.3   148  ILE148      0.0023
     17  CD1       61.7860  -85.1600   92.2370 C.3   148  ILE148      0.0001
     18  N         59.8610  -83.2110   96.4400 N.am  149  ARG149     -0.1963
     19  CA        58.9870  -82.6960   97.4940 C.3   149  ARG149      0.1729
     20  C         57.7770  -82.0790   96.8330 C.2   149  ARG149      0.2616
     21  O         57.8950  -81.1430   96.0440 O.2   149  ARG149     -0.2715
     22  CB        59.6930  -81.6360   98.3340 C.3   149  ARG149      0.0348
     23  CG        60.8480  -82.1780   99.1560 C.3   149  ARG149      0.0492
     24  CD        60.4270  -82.6270  100.5560 C.3   149  ARG149      0.2205
     25  NE        61.5530  -83.2470  101.2640 N.pl3 149  ARG149     -0.0865
     26  CZ        61.9810  -84.4960  101.0670 C.cat 149  ARG149      0.5346
     27  NH1       61.3830  -85.2980  100.1810 N.pl3 149  ARG149      0.1354
     28  NH2       63.0160  -84.9550  101.7680 N.pl3 149  ARG149      0.1354
     29  N         56.6080  -82.6140   97.1490 N.am  150  ASP150     -0.1957
     30  CA        55.3970  -82.1860   96.4720 C.3   150  ASP150      0.1840
     31  C         55.5010  -82.2960   94.9640 C.2   150  ASP150      0.2622
     32  O         54.9720  -81.4530   94.2500 O.2   150  ASP150     -0.2715
     33  CB        55.0870  -80.7460   96.8410 C.3   150  ASP150      0.1450
     34  CG        53.9090  -80.6550   97.6960 C.2   150  ASP150      0.3671
     35  OD1       54.0860  -80.8650   98.9240 O.co2 150  ASP150     -0.2456
     36  OD2       52.8090  -80.4220   97.1190 O.co2 150  ASP150     -0.2456
     37  N         56.1920  -83.3320   94.4980 N.am  151  GLY151     -0.1954
     38  CA        56.3550  -83.5760   93.0770 C.3   151  GLY151      0.1869
     39  C         57.4040  -82.7450   92.3790 C.2   151  GLY151      0.2309
     40  O         57.5650  -82.8720   91.1700 O.2   151  GLY151     -0.2863
     41  N         61.0960  -98.0880   98.1960 N.3   522  GLU522     -0.1231
     42  CA        61.3310  -96.6490   98.0830 C.3   522  GLU522      0.1699
     43  C         60.0790  -95.8550   97.7370 C.2   522  GLU522      0.2592
     44  O         59.9430  -94.7100   98.1720 O.2   522  GLU522     -0.2718
     45  CB        62.4080  -96.3900   97.0250 C.3   522  GLU522      0.0402
     46  CG        63.7510  -96.9890   97.3720 C.3   522  GLU522      0.1161
     47  CD        64.4540  -96.2400   98.4820 C.2   522  GLU522      0.3649
     48  OE1       64.4560  -94.9900   98.4600 O.co2 522  GLU522     -0.2457
     49  OE2       65.0000  -96.9100   99.3820 O.co2 522  GLU522     -0.2457
     50  N         59.1750  -96.4460   96.9520 N.am  523  TYR523     -0.1976
     51  CA        58.0280  -95.7170   96.4050 C.3   523  TYR523      0.1639
     52  C         56.6550  -96.2070   96.8840 C.2   523  TYR523      0.2290
     53  O         55.6710  -95.5050   96.7190 O.2   523  TYR523     -0.2864
     54  CB        58.0990  -95.6970   94.8680 C.3   523  TYR523      0.0560
     55  CG        59.3580  -94.9930   94.4010 C.ar  523  TYR523     -0.0198
     56  CD1       59.3970  -93.6110   94.2730 C.ar  523  TYR523     -0.0009
     57  CD2       60.5220  -95.6980   94.1630 C.ar  523  TYR523     -0.0009
     58  CE1       60.5670  -92.9540   93.8930 C.ar  523  TYR523      0.0417
     59  CE2       61.6920  -95.0520   93.7850 C.ar  523  TYR523      0.0417
     60  CZ        61.7080  -93.6880   93.6470 C.ar  523  TYR523      0.1957
     61  OH        62.8830  -93.0590   93.2840 O.3   523  TYR523     -0.2866
     62  N         55.8160  -86.3370   87.6500 N.3   594  THR594     -0.1218
     63  CA        55.2890  -86.7320   88.9490 C.3   594  THR594      0.1862
     64  C         53.7660  -86.5060   89.0300 C.2   594  THR594      0.2287
     65  O         53.0680  -87.2590   89.7150 O.2   594  THR594     -0.2866
     66  CB        55.9980  -86.0050   90.1030 C.3   594  THR594      0.1770
     67  OG1       55.7340  -84.6000   90.0270 O.3   594  THR594     -0.2211
     68  CG2       57.5180  -86.2590   90.0630 C.3   594  THR594      0.0375
     69  N         51.0290  -89.5840   89.5710 N.3   598  ASP598     -0.1239
     70  CA        50.0710  -89.5850   90.6680 C.3   598  ASP598      0.1674
     71  C         48.6630  -89.9890   90.1820 C.2   598  ASP598      0.2266
     72  O         47.9870  -90.7930   90.8250 O.2   598  ASP598     -0.2867
     73  CB        50.0610  -88.2120   91.3580 C.3   598  ASP598      0.1410
     74  CG        51.2020  -88.0540   92.3780 C.2   598  ASP598      0.3668
     75  OD1       51.9850  -89.0120   92.5920 O.co2 598  ASP598     -0.2456
     76  OD2       51.3140  -86.9590   92.9730 O.co2 598  ASP598     -0.2456
     77  N         64.0970  -91.2100   91.6440 N.3   616  GLU616     -0.1245
     78  CA        64.7550  -90.0890   92.3040 C.3   616  GLU616      0.1567
     79  C         66.2570  -90.3000   92.4710 C.2   616  GLU616      0.2260
     80  O         66.7270  -91.4300   92.6670 O.2   616  GLU616     -0.2867
     81  CB        64.1180  -89.8710   93.6790 C.3   616  GLU616      0.0388
     82  CG        62.6170  -89.6360   93.6110 C.3   616  GLU616      0.1160
     83  CD        62.0040  -89.2860   94.9660 C.2   616  GLU616      0.3649
     84  OE1       62.7730  -89.0480   95.9370 O.co2 616  GLU616     -0.2457
     85  OE2       60.7510  -89.2320   95.0320 O.co2 616  GLU616     -0.2457
@<TRIPOS>BOND
     1    62    63    1
     2    63    64    1
     3    63    66    1
     4    64    65    2
     5    69    70    1
     6    67    66    1
     7    68    66    1
     8    71    70    1
     9    71    72    2
    10    70    73    1
    11    40    39    2
    12    73    74    1
    13    77    78    1
    14    17    15    1
    15    78    79    1
    16    78    81    1
    17    74    75   ar
    18    74    76   ar
    19    39    38    1
    20    79    80    2
    21    38    37    1
    22    15    14    1
    23    61    60    1
    24    82    81    1
    25    82    83    1
    26    60    59   ar
    27    60    58   ar
    28    59    57   ar
    29    16    14    1
    30    58    56   ar
    31    57    55   ar
    32    32    31    2
    33    56    55   ar
    34    14    11    1
    35    55    54    1
    36    37    31   am
    37    54    51    1
    38    31    30    1
    39    83    85   ar
    40    83    84   ar
    41     4     3    2
    42    11    10    1
    43    11    12    1
    44     3    10   am
    45     3     2    1
    46     1     2    1
    47    21    20    2
    48    51    52    1
    49    51    50    1
    50    18    12   am
    51    18    19    1
    52    12    13    2
    53    30    33    1
    54    30    29    1
    55     2     5    1
    56    53    52    2
    57    20    29   am
    58    20    19    1
    59    33    34    1
    60    50    43   am
    61    45    46    1
    62    45    42    1
    63    36    34   ar
    64    46    47    1
    65    19    22    1
    66    34    35   ar
    67    43    42    1
    68    43    44    2
    69     5     6    1
    70    42    41    1
    71    22    23    1
    72    48    47   ar
    73    47    49   ar
    74     6     7    1
    75    23    24    1
    76     7     8    1
    77    27    26    1
    78     8     9    1
    79    24    25    1
    80    26    25    2
    81    26    28    1
