@<TRIPOS>MOLECULE
tmp/3ddyA00.pdb
 124 120 0 0 0
SMALL
GASTEIGER

@<TRIPOS>ATOM
      1  N         39.7470  -19.3010   -8.3430 N.3    41  VAL41      -0.1245
      2  CA        39.2460  -20.6660   -8.3000 C.3    41  VAL41       0.1561
      3  C         39.1170  -21.0010   -6.8250 C.2    41  VAL41       0.2260
      4  O         40.1150  -21.0750   -6.1110 O.2    41  VAL41      -0.2867
      5  CB        40.2200  -21.6620   -8.9580 C.3    41  VAL41       0.0252
      6  CG1       39.7540  -23.0910   -8.6870 C.3    41  VAL41       0.0019
      7  CG2       40.3110  -21.3990  -10.4590 C.3    41  VAL41       0.0019
      8  N         33.4920  -27.9220   -4.1540 N.3    47  CYS47      -0.1221
      9  CA        33.6750  -28.0770   -5.5900 C.3    47  CYS47       0.1808
     10  C         34.4240  -26.9010   -6.2160 C.2    47  CYS47       0.2602
     11  O         34.0300  -25.7470   -6.0470 O.2    47  CYS47      -0.2717
     12  CB        32.3130  -28.2370   -6.2550 C.3    47  CYS47       0.0970
     13  SG        32.3890  -28.4980   -8.0340 S.3    47  CYS47      -0.0800
     14  N         35.5090  -27.1920   -6.9280 N.am   48  SER48      -0.1938
     15  CA        36.2840  -26.1340   -7.5740 C.3    48  SER48       0.2055
     16  C         35.4370  -25.3410   -8.5680 C.2    48  SER48       0.2643
     17  O         34.9640  -25.8790   -9.5540 O.2    48  SER48      -0.2714
     18  CB        37.4850  -26.7120   -8.3190 C.3    48  SER48       0.2130
     19  OG        38.4750  -27.1790   -7.4290 O.3    48  SER48      -0.2179
     20  N         35.1760  -24.1080   -8.3070 N.am   49  ASN49      -0.1957
     21  CA        34.4580  -23.2610   -9.2520 C.3    49  ASN49       0.1819
     22  C         35.2360  -21.9940   -9.5960 C.2    49  ASN49       0.2621
     23  O         36.1750  -21.6580   -8.7710 O.2    49  ASN49      -0.2715
     24  CB        33.0760  -22.8980   -8.7060 C.3    49  ASN49       0.1195
     25  CG        32.1290  -24.0810   -8.6840 C.2    49  ASN49       0.2630
     26  OD1       32.3040  -25.0450   -9.4290 O.2    49  ASN49      -0.2716
     27  ND2       31.1180  -24.0130   -7.8260 N.am   49  ASN49      -0.0877
     28  N         35.0200  -21.3690  -10.6810 N.am   50  THR50      -0.1951
     29  CA        35.7770  -20.1800  -11.0390 C.3    50  THR50       0.1897
     30  C         34.8940  -18.9480  -11.0260 C.2    50  THR50       0.2313
     31  O         33.8780  -18.9110  -11.7190 O.2    50  THR50      -0.2863
     32  CB        36.3940  -20.3160  -12.4430 C.3    50  THR50       0.1794
     33  OG1       37.2120  -21.4910  -12.4910 O.3    50  THR50      -0.2208
     34  CG2       37.2410  -19.0880  -12.7860 C.3    50  THR50       0.0378
     35  N         29.2130  -17.6970  -10.2840 N.3    61  PHE61      -0.1227
     36  CA        29.9240  -18.8430  -10.8080 C.3    61  PHE61       0.1736
     37  C         29.0560  -19.4640  -11.8990 C.2    61  PHE61       0.2595
     38  O         27.8480  -19.5970  -11.7230 O.2    61  PHE61      -0.2718
     39  CB        30.1340  -19.8810   -9.7060 C.3    61  PHE61       0.0547
     40  CG        30.9880  -19.4090   -8.5700 C.ar   61  PHE61      -0.0202
     41  CD1       32.3620  -19.6190   -8.5810 C.ar   61  PHE61      -0.0042
     42  CD2       30.4140  -18.7900   -7.4620 C.ar   61  PHE61      -0.0042
     43  CE1       33.1540  -19.2250   -7.4990 C.ar   61  PHE61      -0.0003
     44  CE2       31.1940  -18.3910   -6.3750 C.ar   61  PHE61      -0.0003
     45  CZ        32.5620  -18.6070   -6.3860 C.ar   61  PHE61      -0.0000
     46  N         29.6550  -19.8080  -13.0310 N.am   62  ASP62      -0.1960
     47  CA        28.8950  -20.4740  -14.0700 C.3    62  ASP62       0.1840
     48  C         29.1130  -21.9470  -13.7560 C.2    62  ASP62       0.2622
     49  O         30.2350  -22.4500  -13.8090 O.2    62  ASP62      -0.2715
     50  CB        29.4170  -20.1460  -15.4700 C.3    62  ASP62       0.1450
     51  CG        28.9160  -18.8140  -15.9860 C.2    62  ASP62       0.3671
     52  OD1       27.7200  -18.5150  -15.7850 O.co2  62  ASP62      -0.2456
     53  OD2       29.7060  -18.0720  -16.6080 O.co2  62  ASP62      -0.2456
     54  N         28.0370  -22.6270  -13.3870 N.am   63  ILE63      -0.1963
     55  CA        28.1220  -24.0320  -13.0420 C.3    63  ILE63       0.1727
     56  C         27.5720  -24.8770  -14.1850 C.2    63  ILE63       0.2616
     57  O         26.3810  -24.8320  -14.4750 O.2    63  ILE63      -0.2715
     58  CB        27.3500  -24.3080  -11.7330 C.3    63  ILE63       0.0290
     59  CG1       27.8520  -23.3550  -10.6430 C.3    63  ILE63       0.0022
     60  CG2       27.5290  -25.7530  -11.3110 C.3    63  ILE63       0.0023
     61  CD1       27.2160  -23.5490   -9.2790 C.3    63  ILE63       0.0001
     62  N         28.4590  -25.6280  -14.8410 N.am   64  ASP64      -0.1957
     63  CA        28.0990  -26.4950  -15.9610 C.3    64  ASP64       0.1840
     64  C         28.8340  -27.8350  -15.9530 C.2    64  ASP64       0.2622
     65  O         28.2250  -28.8920  -15.8050 O.2    64  ASP64      -0.2715
     66  CB        28.3750  -25.7870  -17.2930 C.3    64  ASP64       0.1450
     67  CG        29.6830  -25.0110  -17.2910 C.2    64  ASP64       0.3671
     68  OD1       30.6290  -25.4350  -16.6070 O.co2  64  ASP64      -0.2456
     69  OD2       29.7670  -23.9790  -17.9870 O.co2  64  ASP64      -0.2456
     70  N         30.1460  -27.7840  -16.1380 N.am   65  GLN65      -0.1963
     71  CA        30.9760  -28.9900  -16.1520 C.3    65  GLN65       0.1733
     72  C         30.7170  -29.8620  -14.9200 C.2    65  GLN65       0.2616
     73  O         30.8790  -31.0800  -14.9680 O.2    65  GLN65      -0.2715
     74  CB        32.4500  -28.5920  -16.1830 C.3    65  GLN65       0.0408
     75  CG        33.4120  -29.7480  -16.3560 C.3    65  GLN65       0.0908
     76  CD        34.8460  -29.3350  -16.0920 C.2    65  GLN65       0.2608
     77  OE1       35.2580  -28.2490  -16.4630 O.2    65  GLN65      -0.2717
     78  NE2       35.6090  -30.2030  -15.4560 N.am   65  GLN65      -0.0878
     79  N         30.3110  -29.2220  -13.8240 N.am   66  ALA66      -0.1977
     80  CA        30.0500  -29.9000  -12.5520 C.3    66  ALA66       0.1597
     81  C         28.6030  -30.3360  -12.3260 C.2    66  ALA66       0.2287
     82  O         28.3300  -31.1400  -11.4430 O.2    66  ALA66      -0.2864
     83  CB        30.4990  -29.0000  -11.3850 C.3    66  ALA66       0.0319
     84  N         27.6940  -34.3350  -11.5820 N.3    69  THR69      -0.1203
     85  CA        28.2350  -35.1540  -10.4960 C.3    69  THR69       0.1994
     86  C         28.2640  -34.3410   -9.2160 C.2    69  THR69       0.2618
     87  O         28.9760  -34.6600   -8.2630 O.2    69  THR69      -0.2717
     88  CB        29.6590  -35.5710  -10.8320 C.3    69  THR69       0.1784
     89  OG1       30.4290  -34.3930  -11.0660 O.3    69  THR69      -0.2211
     90  CG2       29.6840  -36.4270  -12.0860 C.3    69  THR69       0.0376
     91  N         27.4530  -33.2960   -9.2060 N.am   70  THR70      -0.1952
     92  CA        27.4140  -32.3820   -8.0860 C.3    70  THR70       0.1897
     93  C         25.9650  -32.1370   -7.6230 C.2    70  THR70       0.2313
     94  O         25.0220  -32.6510   -8.2330 O.2    70  THR70      -0.2863
     95  CB        28.1070  -31.0890   -8.5360 C.3    70  THR70       0.1794
     96  OG1       29.0230  -30.6610   -7.5300 O.3    70  THR70      -0.2208
     97  CG2       27.0900  -30.0200   -8.8550 C.3    70  THR70       0.0378
     98  N         41.1910  -31.3820   -3.0060 N.3    90  THR90      -0.1203
     99  CA        41.5980  -30.8940   -4.3180 C.3    90  THR90       0.1994
    100  C         40.4780  -30.1080   -4.9710 C.2    90  THR90       0.2618
    101  O         40.7150  -29.3110   -5.8860 O.2    90  THR90      -0.2717
    102  CB        41.9650  -32.0390   -5.2650 C.3    90  THR90       0.1784
    103  OG1       40.8390  -32.9090   -5.4130 O.3    90  THR90      -0.2211
    104  CG2       43.1430  -32.8140   -4.7250 C.3    90  THR90       0.0376
    105  N         39.2540  -30.3560   -4.5170 N.am   91  GLY91      -0.1942
    106  CA        38.1030  -29.6660   -5.0700 C.3    91  GLY91       0.2014
    107  C         37.4050  -30.4280   -6.1860 C.2    91  GLY91       0.2639
    108  O         36.3810  -29.9810   -6.6920 O.2    91  GLY91      -0.2714
    109  N         37.9700  -31.5620   -6.5890 N.am   92  ASN92      -0.1958
    110  CA        37.3720  -32.4000   -7.6220 C.3    92  ASN92       0.1819
    111  C         36.3720  -33.3980   -7.0450 C.2    92  ASN92       0.2621
    112  O         36.7570  -34.4480   -6.5220 O.2    92  ASN92      -0.2715
    113  CB        38.4560  -33.1370   -8.4090 C.3    92  ASN92       0.1195
    114  CG        39.3510  -32.1960   -9.1910 C.2    92  ASN92       0.2630
    115  OD1       40.5650  -32.3890   -9.2580 O.2    92  ASN92      -0.2716
    116  ND2       38.7550  -31.1700   -9.7870 N.am   92  ASN92      -0.0877
    117  N         35.1060  -33.0280   -7.0540 N.am   93  ILE93      -0.1977
    118  CA        34.0840  -33.9010   -6.4800 C.3    93  ILE93       0.1596
    119  C         33.9690  -35.2320   -7.2260 C.2    93  ILE93       0.2287
    120  O         33.8150  -35.2730   -8.4530 O.2    93  ILE93      -0.2864
    121  CB        32.7110  -33.1780   -6.4300 C.3    93  ILE93       0.0276
    122  CG1       32.8100  -31.9530   -5.5260 C.3    93  ILE93       0.0022
    123  CG2       31.6420  -34.1180   -5.9000 C.3    93  ILE93       0.0022
    124  CD1       33.2570  -32.2860   -4.1100 C.3    93  ILE93       0.0001
@<TRIPOS>BOND
     1    69    67   ar
     2    66    67    1
     3    66    63    1
     4    67    68   ar
     5    53    51   ar
     6    77    76    2
     7    75    74    1
     8    75    76    1
     9    74    71    1
    10    71    70    1
    11    71    72    1
    12    70    64   am
    13    76    78   am
    14    51    52   ar
    15    51    50    1
    16    63    64    1
    17    63    62    1
    18    64    65    2
    19    50    47    1
    20    73    72    2
    21    72    79   am
    22    62    56   am
    23    57    56    2
    24    56    55    1
    25    47    48    1
    26    47    46    1
    27    79    80    1
    28    49    48    2
    29    48    54   am
    30    54    55    1
    31    55    58    1
    32    46    37   am
    33    34    32    1
    34    80    81    1
    35    80    83    1
    36    33    32    1
    37    32    29    1
    38    81    82    2
    39    90    88    1
    40    37    38    2
    41    37    36    1
    42    58    60    1
    43    58    59    1
    44    31    30    2
    45    84    85    1
    46    89    88    1
    47    29    30    1
    48    29    28    1
    49    88    85    1
    50    36    35    1
    51    36    39    1
    52    28    22   am
    53    59    61    1
    54    85    86    1
    55     7     5    1
    56   116   114   am
    57    39    40    1
    58    22    21    1
    59    22    23    2
    60    17    16    2
    61    26    25    2
    62   115   114    2
    63    21    24    1
    64    21    20    1
    65    86    91   am
    66    86    87    2
    67    91    92    1
    68   114   113    1
    69     5     6    1
    70     5     2    1
    71    97    95    1
    72    24    25    1
    73    25    27   am
    74    41    40   ar
    75    41    43   ar
    76    40    42   ar
    77    16    20   am
    78    16    15    1
    79    95    92    1
    80    95    96    1
    81   120   119    2
    82   113   110    1
    83     1     2    1
    84    18    15    1
    85    18    19    1
    86     2     3    1
    87    94    93    2
    88    92    93    1
    89    13    12    1
    90   110   111    1
    91   110   109    1
    92    15    14    1
    93    43    45   ar
    94    42    44   ar
    95   119   118    1
    96   117   111   am
    97   117   118    1
    98   111   112    2
    99    14    10   am
   100     3     4    2
   101   108   107    2
   102   109   107   am
   103   118   121    1
   104   121   123    1
   105   121   122    1
   106    45    44   ar
   107    12     9    1
   108    10    11    2
   109    10     9    1
   110   107   106    1
   111   101   100    2
   112     9     8    1
   113   122   124    1
   114   103   102    1
   115   102   104    1
   116   102    99    1
   117   106   105    1
   118   100   105   am
   119   100    99    1
   120    99    98    1
