@<TRIPOS>MOLECULE
tmp/3deaB00.pdb
 94 89 0 0 0
SMALL
GASTEIGER

@<TRIPOS>ATOM
      1  N         -1.6230  -12.5060    8.3930 N.3    25  ALA25      -0.1231
      2  CA        -2.1650  -13.3280    9.4910 C.3    25  ALA25       0.1694
      3  C         -1.1050  -13.6470   10.5610 C.2    25  ALA25       0.2593
      4  O          0.1180  -13.5660   10.2990 O.2    25  ALA25      -0.2718
      5  CB        -2.7490  -14.5890    8.9440 C.3    25  ALA25       0.0304
      6  N         -1.5760  -13.9990   11.7610 N.am   26  SER26      -0.1938
      7  CA        -0.7020  -14.4710   12.8510 C.3    26  SER26       0.2055
      8  C          0.3410  -15.4660   12.3320 C.2    26  SER26       0.2643
      9  O         -0.0100  -16.3740   11.5670 O.2    26  SER26      -0.2714
     10  CB        -1.5210  -15.1190   13.9670 C.3    26  SER26       0.2130
     11  OG        -2.6260  -14.2960   14.3420 O.3    26  SER26      -0.2179
     12  N          1.6120  -15.2560   12.7210 N.am   27  THR27      -0.1950
     13  CA         2.7740  -16.1480   12.4230 C.3    27  THR27       0.1897
     14  C          3.1960  -16.2210   10.9420 C.2    27  THR27       0.2313
     15  O          4.0600  -17.0250   10.5910 O.2    27  THR27      -0.2863
     16  CB         2.6030  -17.6400   12.9840 C.3    27  THR27       0.1794
     17  OG1        1.8270  -18.4350   12.0750 O.3    27  THR27      -0.2208
     18  CG2        1.9410  -17.6720   14.3720 C.3    27  THR27       0.0378
     19  N          0.4670  -14.6770   17.9760 N.3    66  LEU66      -0.1245
     20  CA        -0.8340  -15.2500   18.2390 C.3    66  LEU66       0.1561
     21  C         -1.5190  -14.6770   19.4800 C.2    66  LEU66       0.2260
     22  O         -2.7450  -14.5070   19.4920 O.2    66  LEU66      -0.2867
     23  CB        -0.6850  -16.7600   18.3560 C.3    66  LEU66       0.0270
     24  CG        -1.9770  -17.5410   18.2000 C.3    66  LEU66       0.0019
     25  CD1       -2.3590  -17.6490   16.7160 C.3    66  LEU66       0.0001
     26  CD2       -1.7980  -18.9230   18.8610 C.3    66  LEU66       0.0001
     27  N         -4.1030  -11.5000   19.2390 N.3    69  ASN69      -0.1225
     28  CA        -5.5200  -11.7840   18.9340 C.3    69  ASN69       0.1785
     29  C         -6.4360  -11.6850   20.1420 C.2    69  ASN69       0.2597
     30  O         -7.6440  -11.5190   19.9810 O.2    69  ASN69      -0.2718
     31  CB        -5.6940  -13.1950   18.3680 C.3    69  ASN69       0.1169
     32  CG        -5.0440  -13.3720   17.0280 C.2    69  ASN69       0.2627
     33  OD1       -5.6050  -12.9800   16.0080 O.2    69  ASN69      -0.2716
     34  ND2       -3.8630  -13.9970   17.0110 N.am   69  ASN69      -0.0877
     35  N         -5.8690  -11.8180   21.3490 N.am   70  PHE70      -0.1976
     36  CA        -6.6590  -11.8680   22.5900 C.3    70  PHE70       0.1639
     37  C         -6.6840  -10.5360   23.3400 C.2    70  PHE70       0.2290
     38  O         -7.3060  -10.4140   24.4000 O.2    70  PHE70      -0.2864
     39  CB        -6.1930  -13.0400   23.4790 C.3    70  PHE70       0.0560
     40  CG        -6.4810  -14.3970   22.8780 C.ar   70  PHE70      -0.0200
     41  CD1       -7.7260  -15.0070   23.0660 C.ar   70  PHE70      -0.0042
     42  CD2       -5.5280  -15.0440   22.0920 C.ar   70  PHE70      -0.0042
     43  CE1       -8.0070  -16.2410   22.4940 C.ar   70  PHE70      -0.0003
     44  CE2       -5.8010  -16.2840   21.5190 C.ar   70  PHE70      -0.0003
     45  CZ        -7.0420  -16.8850   21.7200 C.ar   70  PHE70      -0.0000
     46  N         -5.7570  -10.4540    6.4920 N.3   104  TYR104     -0.1227
     47  CA        -6.1340  -11.8630    6.7190 C.3   104  TYR104      0.1736
     48  C         -6.0120  -12.1900    8.2010 C.2   104  TYR104      0.2596
     49  O         -4.9570  -11.9800    8.8190 O.2   104  TYR104     -0.2718
     50  CB        -5.2820  -12.7960    5.8550 C.3   104  TYR104      0.0548
     51  CG        -5.4670  -14.2930    6.0840 C.ar  104  TYR104     -0.0200
     52  CD1       -6.7040  -14.8440    6.4260 C.ar  104  TYR104     -0.0009
     53  CD2       -4.4050  -15.1590    5.8850 C.ar  104  TYR104     -0.0009
     54  CE1       -6.8500  -16.2170    6.6120 C.ar  104  TYR104      0.0417
     55  CE2       -4.5360  -16.5110    6.0660 C.ar  104  TYR104      0.0417
     56  CZ        -5.7460  -17.0340    6.4310 C.ar  104  TYR104      0.1957
     57  OH        -5.8200  -18.3930    6.5920 O.3   104  TYR104     -0.2866
     58  N         -7.1220  -12.6610    8.7660 N.am  105  SER105     -0.1938
     59  CA        -7.2270  -13.0750   10.1550 C.3   105  SER105      0.2055
     60  C         -6.8900  -11.9510   11.1540 C.2   105  SER105      0.2642
     61  O         -7.6760  -11.0010   11.2890 O.2   105  SER105     -0.2714
     62  CB        -6.3870  -14.3260   10.3630 C.3   105  SER105      0.2130
     63  OG        -6.7680  -14.9600   11.5640 O.3   105  SER105     -0.2179
     64  N         -5.7470  -12.0260   11.8430 N.am  106  GLN106     -0.1976
     65  CA        -5.3650  -10.9350   12.7580 C.3   106  GLN106      0.1601
     66  C         -5.1330   -9.6020   12.0070 C.2   106  GLN106      0.2287
     67  O         -5.3360   -8.5330   12.5940 O.2   106  GLN106     -0.2864
     68  CB        -4.1390  -11.2690   13.6300 C.3   106  GLN106      0.0394
     69  CG        -3.8250  -10.1490   14.6620 C.3   106  GLN106      0.0908
     70  CD        -2.5360  -10.3440   15.4480 C.2   106  GLN106      0.2608
     71  OE1       -2.1500   -9.4920   16.2480 O.2   106  GLN106     -0.2717
     72  NE2       -1.8880  -11.4760   15.2520 N.am  106  GLN106     -0.0878
     73  N        -11.7910  -11.7740   12.1880 N.3   135  THR135     -0.1218
     74  CA       -11.8540  -12.1120   13.6240 C.3   135  THR135      0.1862
     75  C        -12.8120  -11.2500   14.4630 C.2   135  THR135      0.2287
     76  O        -13.2070  -11.6580   15.5550 O.2   135  THR135     -0.2866
     77  CB       -10.4310  -12.2010   14.2750 C.3   135  THR135      0.1770
     78  OG1       -9.8060  -10.9040   14.3180 O.3   135  THR135     -0.2211
     79  CG2       -9.5620  -13.1410   13.5000 C.3   135  THR135      0.0375
     80  N        -13.4260  -18.2250   13.6220 N.3   162  VAL162     -0.1245
     81  CA       -13.1220  -16.8240   13.9480 C.3   162  VAL162      0.1561
     82  C        -14.2470  -15.8420   13.5940 C.2   162  VAL162      0.2260
     83  O        -14.3370  -14.7850   14.2070 O.2   162  VAL162     -0.2867
     84  CB       -11.7360  -16.3480   13.3760 C.3   162  VAL162      0.0252
     85  CG1      -10.6810  -17.4300   13.5520 C.3   162  VAL162      0.0019
     86  CG2      -11.8240  -15.9230   11.9200 C.3   162  VAL162      0.0019
     87  N        -14.2680  -20.2330   20.2350 N.3   169  ILE169     -0.1245
     88  CA       -12.8170  -20.2330   20.5340 C.3   169  ILE169      0.1561
     89  C        -12.4550  -20.2540   22.0290 C.2   169  ILE169      0.2260
     90  O        -13.0890  -19.5890   22.8490 O.2   169  ILE169     -0.2867
     91  CB       -12.0230  -19.1150   19.7620 C.3   169  ILE169      0.0252
     92  CG1      -12.3690  -17.7150   20.2870 C.3   169  ILE169      0.0019
     93  CG2      -12.2520  -19.2030   18.2480 C.3   169  ILE169      0.0019
     94  CD1      -11.4600  -17.2120   21.4480 C.3   169  ILE169      0.0001
@<TRIPOS>BOND
     1    50    51    1
     2    50    47    1
     3    53    55   ar
     4    53    51   ar
     5    55    56   ar
     6    51    52   ar
     7    52    54   ar
     8    56    57    1
     9    56    54   ar
    10    46    47    1
    11    47    48    1
    12    48    58   am
    13    48    49    2
    14     1     2    1
    15    58    59    1
    16     5     2    1
    17     2     3    1
    18    59    62    1
    19    59    60    1
    20     4     3    2
    21    62    63    1
    22     3     6   am
    23    15    14    2
    24    14    13    1
    25    60    61    2
    26    60    64   am
    27     9     8    2
    28     6     7    1
    29    64    65    1
    30    86    84    1
    31    66    67    2
    32    66    65    1
    33    17    16    1
    34    73    74    1
    35     8    12   am
    36     8     7    1
    37    13    12    1
    38    13    16    1
    39    65    68    1
    40     7    10    1
    41    16    18    1
    42    84    85    1
    43    84    81    1
    44    79    77    1
    45    82    81    1
    46    82    83    2
    47    80    81    1
    48    74    77    1
    49    74    75    1
    50    68    69    1
    51    10    11    1
    52    77    78    1
    53    75    76    2
    54    69    70    1
    55    72    70   am
    56    70    71    2
    57    33    32    2
    58    25    24    1
    59    34    32   am
    60    32    31    1
    61    19    20    1
    62    24    23    1
    63    24    26    1
    64    20    23    1
    65    20    21    1
    66    93    91    1
    67    31    28    1
    68    28    27    1
    69    28    29    1
    70    21    22    2
    71    91    92    1
    72    91    88    1
    73    30    29    2
    74    29    35   am
    75    87    88    1
    76    92    94    1
    77    88    89    1
    78    35    36    1
    79    44    45   ar
    80    44    42   ar
    81    45    43   ar
    82    89    90    2
    83    42    40   ar
    84    43    41   ar
    85    36    37    1
    86    36    39    1
    87    40    41   ar
    88    40    39    1
    89    37    38    2
