@<TRIPOS>MOLECULE
tmp/3dejA00.pdb
 87 84 0 0 0
SMALL
GASTEIGER

@<TRIPOS>ATOM
      1  N        -36.4710   19.4010  -27.0540 N.3    28  MET28      -0.1230
      2  CA       -36.6740   19.4030  -25.6160 C.3    28  MET28       0.1702
      3  C        -36.7160   20.8080  -25.0580 C.2    28  MET28       0.2593
      4  O        -35.9520   21.6800  -25.4730 O.2    28  MET28      -0.2718
      5  CB       -35.5700   18.6140  -24.9250 C.3    28  MET28       0.0401
      6  CG       -35.3760   17.2460  -25.5180 C.3    28  MET28       0.0596
      7  SD       -34.6640   16.0750  -24.3850 S.3    28  MET28      -0.1393
      8  CE       -36.1730   15.0170  -24.0760 C.3    28  MET28       0.0692
      9  N        -37.6050   21.0230  -24.0990 N.am   29  THR29      -0.1953
     10  CA       -37.7120   22.3300  -23.4890 C.3    29  THR29       0.1897
     11  C        -36.6900   22.4850  -22.3880 C.2    29  THR29       0.2313
     12  O        -36.1250   21.4930  -21.8980 O.2    29  THR29      -0.2863
     13  CB       -39.1160   22.5770  -22.9480 C.3    29  THR29       0.1794
     14  OG1      -39.6380   21.3650  -22.3720 O.3    29  THR29      -0.2208
     15  CG2      -40.0600   22.9250  -24.1040 C.3    29  THR29       0.0378
     16  N        -33.9720   15.7980  -18.1960 N.3    88  HIS88      -0.1226
     17  CA       -35.0810   15.0300  -18.7620 C.3    88  HIS88       0.1752
     18  C        -34.6410   13.5720  -18.7640 C.2    88  HIS88       0.2597
     19  O        -33.4470   13.2880  -18.8060 O.2    88  HIS88      -0.2718
     20  CB       -35.4110   15.4210  -20.2180 C.3    88  HIS88       0.0759
     21  CG       -35.9030   16.8220  -20.3890 C.ar   88  HIS88       0.0818
     22  ND1      -37.0810   17.2750  -19.8330 N.ar   88  HIS88      -0.2268
     23  CD2      -35.3770   17.8730  -21.0660 C.ar   88  HIS88       0.1154
     24  CE1      -37.2550   18.5450  -20.1500 C.ar   88  HIS88       0.1986
     25  NE2      -36.2310   18.9330  -20.8910 N.ar   88  HIS88      -0.2212
     26  N        -35.6080   12.6610  -18.7470 N.am   89  GLY89      -0.1942
     27  CA       -35.3230   11.2500  -18.8480 C.3    89  GLY89       0.2014
     28  C        -36.4320   10.4000  -19.4200 C.2    89  GLY89       0.2638
     29  O        -37.4910   10.8820  -19.8270 O.2    89  GLY89      -0.2714
     30  N        -36.1560    9.1080  -19.4540 N.am   90  GLU90      -0.1977
     31  CA       -37.0950    8.0640  -19.8600 C.3    90  GLU90       0.1602
     32  C        -36.6330    6.8710  -19.0570 C.2    90  GLU90       0.2287
     33  O        -35.5180    6.8970  -18.4930 O.2    90  GLU90      -0.2864
     34  CB       -36.9380    7.7200  -21.3370 C.3    90  GLU90       0.0415
     35  CG       -37.5500    8.7140  -22.2970 C.3    90  GLU90       0.1163
     36  CD       -37.1350    8.4570  -23.7420 C.2    90  GLU90       0.3649
     37  OE1      -36.8020    7.2980  -24.0930 O.co2  90  GLU90      -0.2457
     38  OE2      -37.1550    9.4250  -24.5360 O.co2  90  GLU90      -0.2457
     39  N        -40.8200    8.0150  -17.7010 N.3   131  GLY131     -0.1210
     40  CA       -42.0040    7.7600  -18.5030 C.3   131  GLY131      0.1956
     41  C        -42.9600    8.9360  -18.4000 C.2   131  GLY131      0.2612
     42  O        -42.6150    9.9540  -17.8110 O.2   131  GLY131     -0.2717
     43  N        -44.1550    8.7910  -18.9640 N.am  132  THR132     -0.1952
     44  CA       -45.1070    9.9080  -19.0530 C.3   132  THR132      0.1897
     45  C        -46.3640    9.6990  -18.2030 C.2   132  THR132      0.2313
     46  O        -47.2510   10.5650  -18.1880 O.2   132  THR132     -0.2863
     47  CB       -45.5550   10.1530  -20.5310 C.3   132  THR132      0.1794
     48  OG1      -46.2890    9.0090  -20.9920 O.3   132  THR132     -0.2208
     49  CG2      -44.3810   10.2310  -21.4810 C.3   132  THR132      0.0378
     50  N        -49.0270    9.5860  -15.2380 N.3   134  LEU134     -0.1245
     51  CA       -49.3560   10.4230  -14.0750 C.3   134  LEU134      0.1561
     52  C        -50.0810    9.5880  -13.0360 C.2   134  LEU134      0.2260
     53  O        -50.8050    8.6750  -13.3850 O.2   134  LEU134     -0.2867
     54  CB       -50.2260   11.6100  -14.4860 C.3   134  LEU134      0.0270
     55  CG       -49.6670   12.5310  -15.5780 C.3   134  LEU134      0.0019
     56  CD1      -50.7070   13.5700  -15.9770 C.3   134  LEU134      0.0001
     57  CD2      -48.3590   13.1840  -15.1220 C.3   134  LEU134      0.0001
     58  N        -43.9280   10.1210  -14.7190 N.3   159  TYR159     -0.1241
     59  CA       -43.4180   11.4610  -14.8340 C.3   159  TYR159      0.1605
     60  C        -42.8870   11.9300  -13.4580 C.2   159  TYR159      0.2264
     61  O        -43.2480   11.3650  -12.4230 O.2   159  TYR159     -0.2867
     62  CB       -44.5290   12.3430  -15.3720 C.3   159  TYR159      0.0534
     63  CG       -44.1640   13.7920  -15.3860 C.ar  159  TYR159     -0.0201
     64  CD1      -43.3290   14.2920  -16.3710 C.ar  159  TYR159     -0.0009
     65  CD2      -44.6150   14.6620  -14.3840 C.ar  159  TYR159     -0.0009
     66  CE1      -42.9600   15.6180  -16.3910 C.ar  159  TYR159      0.0417
     67  CE2      -44.2440   15.9940  -14.3980 C.ar  159  TYR159      0.0417
     68  CZ       -43.4090   16.4660  -15.4080 C.ar  159  TYR159      0.1957
     69  OH       -43.0180   17.7850  -15.4570 O.3   159  TYR159     -0.2866
     70  N        -56.6290   17.1620  -16.8750 N.3   210  THR210     -0.1203
     71  CA       -55.6020   16.2000  -17.2370 C.3   210  THR210      0.1994
     72  C        -54.3860   16.2460  -16.3130 C.2   210  THR210      0.2617
     73  O        -53.7980   15.2000  -15.9970 O.2   210  THR210     -0.2717
     74  CB       -55.1190   16.4610  -18.6520 C.3   210  THR210      0.1784
     75  OG1      -56.1940   16.2560  -19.5560 O.3   210  THR210     -0.2211
     76  CG2      -54.0520   15.4020  -19.0820 C.3   210  THR210      0.0376
     77  N        -53.9920   17.4530  -15.9070 N.am  211  PHE211     -0.1975
     78  CA       -52.7300   17.6200  -15.1710 C.3   211  PHE211      0.1639
     79  C        -52.9420   17.9950  -13.7220 C.2   211  PHE211      0.2290
     80  O        -51.9820   18.2370  -13.0060 O.2   211  PHE211     -0.2864
     81  CB       -51.7960   18.6260  -15.8630 C.3   211  PHE211      0.0560
     82  CG       -51.5950   18.3560  -17.3260 C.ar  211  PHE211     -0.0200
     83  CD1      -52.2180   19.1510  -18.2740 C.ar  211  PHE211     -0.0042
     84  CD2      -50.8240   17.2910  -17.7510 C.ar  211  PHE211     -0.0042
     85  CE1      -52.0590   18.9130  -19.6310 C.ar  211  PHE211     -0.0003
     86  CE2      -50.6570   17.0250  -19.1060 C.ar  211  PHE211     -0.0003
     87  CZ       -51.2770   17.8490  -20.0550 C.ar  211  PHE211     -0.0000
@<TRIPOS>BOND
     1     1     2    1
     2     2     3    1
     3     2     5    1
     4     6     5    1
     5     6     7    1
     6     4     3    2
     7     3     9   am
     8    38    36   ar
     9     7     8    1
    10    15    13    1
    11     9    10    1
    12    37    36   ar
    13    36    35    1
    14    10    13    1
    15    10    11    1
    16    13    14    1
    17    11    12    2
    18    35    34    1
    19    49    47    1
    20    34    31    1
    21    23    25   ar
    22    23    21   ar
    23    48    47    1
    24    25    24   ar
    25    47    44    1
    26    21    20    1
    27    21    22   ar
    28    20    17    1
    29    24    22   ar
    30    87    85   ar
    31    87    86   ar
    32    31    30    1
    33    31    32    1
    34    29    28    2
    35    85    83   ar
    36    75    74    1
    37    30    28   am
    38    28    27    1
    39    86    84   ar
    40    76    74    1
    41    32    33    2
    42    44    43    1
    43    44    45    1
    44    43    41   am
    45    27    26    1
    46    19    18    2
    47    18    17    1
    48    18    26   am
    49    17    16    1
    50    74    71    1
    51    40    41    1
    52    40    39    1
    53    41    42    2
    54    83    82   ar
    55    45    46    2
    56    84    82   ar
    57    82    81    1
    58    71    70    1
    59    71    72    1
    60    66    64   ar
    61    66    68   ar
    62    64    63   ar
    63    72    73    2
    64    72    77   am
    65    56    55    1
    66    77    78    1
    67    81    78    1
    68    55    57    1
    69    55    54    1
    70    69    68    1
    71    68    67   ar
    72    63    62    1
    73    63    65   ar
    74    62    59    1
    75    50    51    1
    76    78    79    1
    77    59    58    1
    78    59    60    1
    79    54    51    1
    80    67    65   ar
    81    51    52    1
    82    79    80    2
    83    60    61    2
    84    53    52    2
