@<TRIPOS>MOLECULE
tmp/3dekA00.pdb
 100 97 0 0 0
SMALL
GASTEIGER

@<TRIPOS>ATOM
      1  N        -36.4850   19.5200  -27.0060 N.3    28  MET28      -0.1245
      2  CA       -36.6360   19.4510  -25.5590 C.3    28  MET28       0.1570
      3  C        -36.7160   20.8440  -24.9790 C.2    28  MET28       0.2261
      4  O        -36.0470   21.7600  -25.4670 O.2    28  MET28      -0.2867
      5  CB       -35.4770   18.6890  -24.9290 C.3    28  MET28       0.0387
      6  CG       -35.2600   17.3380  -25.5480 C.3    28  MET28       0.0595
      7  SD       -34.3480   16.2450  -24.4900 S.3    28  MET28      -0.1393
      8  CE       -35.7440   15.2340  -23.8880 C.3    28  MET28       0.0692
      9  N        -34.1230   15.9050  -18.1050 N.3    88  HIS88      -0.1226
     10  CA       -35.2670   15.1600  -18.6600 C.3    88  HIS88       0.1752
     11  C        -34.8610   13.7100  -18.6400 C.2    88  HIS88       0.2597
     12  O        -33.6700   13.4120  -18.6560 O.2    88  HIS88      -0.2718
     13  CB       -35.5750   15.5390  -20.1190 C.3    88  HIS88       0.0759
     14  CG       -36.0050   16.9600  -20.3110 C.ar   88  HIS88       0.0818
     15  ND1      -37.1440   17.4820  -19.7340 N.ar   88  HIS88      -0.2268
     16  CD2      -35.4530   17.9680  -21.0320 C.ar   88  HIS88       0.1154
     17  CE1      -37.2720   18.7500  -20.0820 C.ar   88  HIS88       0.1986
     18  NE2      -36.2570   19.0700  -20.8680 N.ar   88  HIS88      -0.2212
     19  N        -35.8380   12.8110  -18.6450 N.am   89  GLY89      -0.1942
     20  CA       -35.5390   11.3960  -18.7230 C.3    89  GLY89       0.2014
     21  C        -36.5990   10.5490  -19.3970 C.2    89  GLY89       0.2639
     22  O        -37.6350   11.0440  -19.8520 O.2    89  GLY89      -0.2714
     23  N        -36.2960    9.2560  -19.4570 N.am   90  GLU90      -0.1963
     24  CA       -37.1550    8.2010  -19.9640 C.3    90  GLU90       0.1733
     25  C        -36.7810    6.9850  -19.1270 C.2    90  GLU90       0.2616
     26  O        -35.7240    6.9820  -18.4630 O.2    90  GLU90      -0.2715
     27  CB       -36.8340    7.9220  -21.4340 C.3    90  GLU90       0.0429
     28  CG       -37.6430    8.7620  -22.4030 C.3    90  GLU90       0.1163
     29  CD       -37.0610    8.8110  -23.8040 C.2    90  GLU90       0.3649
     30  OE1      -36.5530    7.7920  -24.3010 O.co2  90  GLU90      -0.2457
     31  OE2      -37.1370    9.8840  -24.4260 O.co2  90  GLU90      -0.2457
     32  N        -37.6120    5.9490  -19.1420 N.am   91  GLU91      -0.1977
     33  CA       -37.2600    4.7410  -18.3880 C.3    91  GLU91       0.1602
     34  C        -35.8140    4.3430  -18.7000 C.2    91  GLU91       0.2287
     35  O        -35.4390    4.1920  -19.8620 O.2    91  GLU91      -0.2864
     36  CB       -38.2160    3.5790  -18.6710 C.3    91  GLU91       0.0415
     37  CG       -37.9600    2.3460  -17.8120 C.3    91  GLU91       0.1163
     38  CD       -37.7660    2.6710  -16.3350 C.2    91  GLU91       0.3649
     39  OE1      -38.7380    3.1180  -15.6800 O.co2  91  GLU91      -0.2457
     40  OE2      -36.6350    2.4810  -15.8280 O.co2  91  GLU91      -0.2457
     41  N        -39.3670    9.0180  -15.9140 N.3   130  ARG130     -0.1231
     42  CA       -39.1560    7.6130  -16.1940 C.3   130  ARG130      0.1694
     43  C        -40.2700    7.1040  -17.1320 C.2   130  ARG130      0.2593
     44  O        -40.5940    5.9070  -17.1760 O.2   130  ARG130     -0.2718
     45  CB       -39.1040    6.8210  -14.8790 C.3   130  ARG130      0.0321
     46  CG       -37.9170    7.1660  -14.0090 C.3   130  ARG130      0.0489
     47  CD       -37.7860    6.3260  -12.7750 C.3   130  ARG130      0.2205
     48  NE       -37.2830    4.9930  -13.0510 N.pl3 130  ARG130     -0.0865
     49  CZ       -37.3020    3.9900  -12.1780 C.cat 130  ARG130      0.5346
     50  NH1      -37.8160    4.1780  -10.9650 N.pl3 130  ARG130      0.1354
     51  NH2      -36.8130    2.8010  -12.5260 N.pl3 130  ARG130      0.1354
     52  N        -40.8340    8.0240  -17.9000 N.am  131  GLY131     -0.1942
     53  CA       -42.0690    7.7710  -18.6330 C.3   131  GLY131      0.2014
     54  C        -43.0090    8.9580  -18.4820 C.2   131  GLY131      0.2639
     55  O        -42.6480    9.9680  -17.8540 O.2   131  GLY131     -0.2714
     56  N        -44.2130    8.8310  -19.0380 N.am  132  THR132     -0.1950
     57  CA       -45.1870    9.9340  -19.1420 C.3   132  THR132      0.1897
     58  C        -46.4220    9.7450  -18.2600 C.2   132  THR132      0.2313
     59  O        -47.3650   10.5630  -18.3030 O.2   132  THR132     -0.2863
     60  CB       -45.6900   10.0630  -20.6050 C.3   132  THR132      0.1794
     61  OG1      -46.2160    8.7900  -21.0260 O.3   132  THR132     -0.2208
     62  CG2      -44.5440   10.3270  -21.5820 C.3   132  THR132      0.0378
     63  N        -49.0450    9.5420  -15.1510 N.3   134  LEU134     -0.1245
     64  CA       -49.4270   10.3760  -14.0230 C.3   134  LEU134      0.1561
     65  C        -50.1150    9.5430  -12.9790 C.2   134  LEU134      0.2260
     66  O        -50.8780    8.6220  -13.2890 O.2   134  LEU134     -0.2867
     67  CB       -50.3560   11.5140  -14.4690 C.3   134  LEU134      0.0270
     68  CG       -49.7690   12.4590  -15.5230 C.3   134  LEU134      0.0019
     69  CD1      -50.7220   13.5980  -15.8510 C.3   134  LEU134      0.0001
     70  CD2      -48.4250   13.0040  -15.0400 C.3   134  LEU134      0.0001
     71  N        -43.9640   10.0880  -14.8420 N.3   159  TYR159     -0.1241
     72  CA       -43.5350   11.4760  -14.9340 C.3   159  TYR159      0.1605
     73  C        -42.9910   11.9930  -13.5700 C.2   159  TYR159      0.2264
     74  O        -43.3410   11.4600  -12.5090 O.2   159  TYR159     -0.2867
     75  CB       -44.7220   12.3280  -15.4170 C.3   159  TYR159      0.0534
     76  CG       -44.3740   13.7770  -15.3960 C.ar  159  TYR159     -0.0201
     77  CD1      -43.5220   14.3040  -16.3510 C.ar  159  TYR159     -0.0009
     78  CD2      -44.8220   14.6100  -14.3660 C.ar  159  TYR159     -0.0009
     79  CE1      -43.1280   15.6340  -16.2900 C.ar  159  TYR159      0.0417
     80  CE2      -44.4370   15.9340  -14.3170 C.ar  159  TYR159      0.0417
     81  CZ       -43.5900   16.4310  -15.2800 C.ar  159  TYR159      0.1957
     82  OH       -43.1940   17.7330  -15.2500 O.3   159  TYR159     -0.2866
     83  N        -56.6110   17.2930  -16.8410 N.3   210  THR210     -0.1203
     84  CA       -55.6330   16.2680  -17.2260 C.3   210  THR210      0.1994
     85  C        -54.4280   16.2360  -16.2950 C.2   210  THR210      0.2617
     86  O        -53.8840   15.1650  -16.0060 O.2   210  THR210     -0.2717
     87  CB       -55.1730   16.4930  -18.6750 C.3   210  THR210      0.1784
     88  OG1      -56.3190   16.4620  -19.5300 O.3   210  THR210     -0.2211
     89  CG2      -54.2980   15.3130  -19.2010 C.3   210  THR210      0.0376
     90  N        -54.0160   17.4090  -15.8230 N.am  211  PHE211     -0.1975
     91  CA       -52.7650   17.5320  -15.0730 C.3   211  PHE211      0.1639
     92  C        -53.0140   17.9220  -13.6340 C.2   211  PHE211      0.2290
     93  O        -52.0720   18.2500  -12.9170 O.2   211  PHE211     -0.2864
     94  CB       -51.8270   18.5610  -15.7360 C.3   211  PHE211      0.0560
     95  CG       -51.6870   18.3820  -17.2160 C.ar  211  PHE211     -0.0200
     96  CD1      -52.2660   19.2940  -18.0940 C.ar  211  PHE211     -0.0042
     97  CD2      -51.0070   17.2910  -17.7340 C.ar  211  PHE211     -0.0042
     98  CE1      -52.1730   19.1340  -19.4670 C.ar  211  PHE211     -0.0003
     99  CE2      -50.9060   17.1050  -19.1270 C.ar  211  PHE211     -0.0003
    100  CZ       -51.4930   18.0410  -19.9920 C.ar  211  PHE211     -0.0000
@<TRIPOS>BOND
     1     1     2    1
     2     2     3    1
     3     2     5    1
     4     6     5    1
     5     6     7    1
     6     4     3    2
     7     7     8    1
     8    31    29   ar
     9    30    29   ar
    10    29    28    1
    11    28    27    1
    12    62    60    1
    13    27    24    1
    14    16    18   ar
    15    16    14   ar
    16    61    60    1
    17    18    17   ar
    18    60    57    1
    19    14    13    1
    20    14    15   ar
    21    13    10    1
    22    17    15   ar
    23   100    98   ar
    24   100    99   ar
    25    24    23    1
    26    24    25    1
    27    35    34    2
    28    22    21    2
    29    88    87    1
    30    98    96   ar
    31    23    21   am
    32    21    20    1
    33    89    87    1
    34    57    56    1
    35    57    58    1
    36    32    25   am
    37    32    33    1
    38    99    97   ar
    39    25    26    2
    40    56    54   am
    41    20    19    1
    42    34    33    1
    43    87    84    1
    44    36    33    1
    45    36    37    1
    46    10    11    1
    47    10     9    1
    48    12    11    2
    49    19    11   am
    50    53    54    1
    51    53    52    1
    52    54    55    2
    53    59    58    2
    54    96    95   ar
    55    52    43   am
    56    37    38    1
    57    97    95   ar
    58    84    83    1
    59    84    85    1
    60    95    94    1
    61    44    43    2
    62    43    42    1
    63    77    79   ar
    64    77    76   ar
    65    38    40   ar
    66    38    39   ar
    67    85    86    2
    68    85    90   am
    69    79    81   ar
    70    42    41    1
    71    42    45    1
    72    69    68    1
    73    90    91    1
    74    94    91    1
    75    68    70    1
    76    68    67    1
    77    75    76    1
    78    75    72    1
    79    76    78   ar
    80    81    82    1
    81    81    80   ar
    82    63    64    1
    83    91    92    1
    84    72    71    1
    85    72    73    1
    86    45    46    1
    87    67    64    1
    88    78    80   ar
    89    64    65    1
    90    46    47    1
    91    92    93    2
    92    73    74    2
    93    66    65    2
    94    48    47    1
    95    48    49    2
    96    51    49    1
    97    49    50    1
