@<TRIPOS>MOLECULE
tmp/3depA00.pdb
 193 182 0 0 0
SMALL
GASTEIGER

@<TRIPOS>ATOM
      1  N        -22.8840   32.1950    2.6870 N.3    53  ARG53      -0.1245
      2  CA       -23.2320   31.6560    3.9930 C.3    53  ARG53       0.1563
      3  C        -24.7270   31.7030    4.3010 C.2    53  ARG53       0.2260
      4  O        -25.2770   30.7510    4.8330 O.2    53  ARG53      -0.2867
      5  CB       -22.4350   32.3500    5.0860 C.3    53  ARG53       0.0307
      6  CG       -20.9840   31.9650    5.0730 C.3    53  ARG53       0.0489
      7  CD       -20.2320   32.6840    6.1630 C.3    53  ARG53       0.2205
      8  NE       -18.9160   32.0890    6.4040 N.pl3  53  ARG53      -0.0865
      9  CZ       -17.7850   32.4970    5.8250 C.cat  53  ARG53       0.5346
     10  NH1      -17.7990   33.5130    4.9580 N.pl3  53  ARG53       0.1354
     11  NH2      -16.6340   31.8930    6.1140 N.pl3  53  ARG53       0.1354
     12  N        -12.1010   27.0190   -0.7380 N.3    77  ARG77      -0.1245
     13  CA       -13.5580   26.9200   -0.9280 C.3    77  ARG77       0.1563
     14  C        -14.0930   27.9170   -1.9590 C.2    77  ARG77       0.2260
     15  O        -13.5590   29.0040   -2.0910 O.2    77  ARG77      -0.2867
     16  CB       -14.2880   27.1670    0.3940 C.3    77  ARG77       0.0307
     17  CG       -14.3830   25.9580    1.3240 C.3    77  ARG77       0.0489
     18  CD       -13.0920   25.7440    2.0680 C.3    77  ARG77       0.2205
     19  NE       -13.1370   24.5840    2.9580 N.pl3  77  ARG77      -0.0865
     20  CZ       -13.1110   24.6470    4.2940 C.cat  77  ARG77       0.5346
     21  NH1      -13.0470   25.8240    4.9060 N.pl3  77  ARG77       0.1354
     22  NH2      -13.1320   23.5280    5.0210 N.pl3  77  ARG77       0.1354
     23  N        -19.2520   25.3260   -2.5940 N.3    81  LEU81      -0.1231
     24  CA       -18.9920   24.4290   -1.4430 C.3    81  LEU81       0.1693
     25  C        -19.8540   24.8060   -0.2330 C.2    81  LEU81       0.2592
     26  O        -20.6160   23.9760    0.2750 O.2    81  LEU81      -0.2718
     27  CB       -17.4910   24.3560   -1.0990 C.3    81  LEU81       0.0284
     28  CG       -16.6060   23.2750   -1.7760 C.3    81  LEU81       0.0019
     29  CD1      -16.6640   23.2280   -3.3270 C.3    81  LEU81       0.0001
     30  CD2      -15.1790   23.3950   -1.3110 C.3    81  LEU81       0.0001
     31  N        -19.7680   26.0670    0.1980 N.am   82  PHE82      -0.1976
     32  CA       -20.6950   26.6190    1.2060 C.3    82  PHE82       0.1639
     33  C        -22.1810   26.3360    0.9650 C.2    82  PHE82       0.2290
     34  O        -22.8940   25.9600    1.8950 O.2    82  PHE82      -0.2864
     35  CB       -20.4810   28.1230    1.3540 C.3    82  PHE82       0.0560
     36  CG       -19.2370   28.4670    2.1060 C.ar   82  PHE82      -0.0200
     37  CD1      -19.2310   28.4700    3.5050 C.ar   82  PHE82      -0.0042
     38  CD2      -18.0580   28.7580    1.4250 C.ar   82  PHE82      -0.0042
     39  CE1      -18.0790   28.7720    4.2120 C.ar   82  PHE82      -0.0003
     40  CE2      -16.9000   29.0640    2.1270 C.ar   82  PHE82      -0.0003
     41  CZ       -16.9090   29.0570    3.5160 C.ar   82  PHE82      -0.0000
     42  N        -22.9760   22.6190    1.2640 N.3    85  GLY85      -0.1210
     43  CA       -22.9800   22.4380    2.7200 C.3    85  GLY85       0.1956
     44  C        -24.2290   22.9190    3.4530 C.2    85  GLY85       0.2611
     45  O        -24.5810   22.3740    4.4920 O.2    85  GLY85      -0.2717
     46  N        -24.9120   23.9380    2.9490 N.am   86  LEU86      -0.1979
     47  CA       -26.0900   24.3970    3.6700 C.3    86  LEU86       0.1596
     48  C        -27.3880   23.8160    3.1150 C.2    86  LEU86       0.2287
     49  O        -28.4260   23.9520    3.7330 O.2    86  LEU86      -0.2864
     50  CB       -26.1280   25.9320    3.7770 C.3    86  LEU86       0.0297
     51  CG       -24.8460   26.4900    4.3980 C.3    86  LEU86       0.0022
     52  CD1      -24.6070   27.8870    3.9300 C.3    86  LEU86       0.0001
     53  CD2      -24.8220   26.4150    5.9200 C.3    86  LEU86       0.0001
     54  N         -8.1100   22.5280    2.2130 N.3   108  ARG108     -0.1245
     55  CA        -8.0000   22.0090    3.5950 C.3   108  ARG108      0.1563
     56  C         -8.4110   20.5170    3.7700 C.2   108  ARG108      0.2260
     57  O         -8.7060   20.0800    4.8920 O.2   108  ARG108     -0.2867
     58  CB        -8.7990   22.8810    4.5780 C.3   108  ARG108      0.0307
     59  CG        -8.0850   24.1380    5.0300 C.3   108  ARG108      0.0489
     60  CD        -8.6710   24.6510    6.3460 C.3   108  ARG108      0.2205
     61  NE        -8.0050   24.0320    7.4950 N.pl3 108  ARG108     -0.0865
     62  CZ        -8.0580   24.4760    8.7560 C.cat 108  ARG108      0.5346
     63  NH1       -8.7610   25.5640    9.0630 N.pl3 108  ARG108      0.1354
     64  NH2       -7.4020   23.8240    9.7220 N.pl3 108  ARG108      0.1354
     65  N        -11.8270   18.3000   -0.3510 N.3   111  LEU111     -0.1245
     66  CA       -13.2780   18.1440   -0.4050 C.3   111  LEU111      0.1561
     67  C        -13.9370   18.8260   -1.5980 C.2   111  LEU111      0.2260
     68  O        -13.3710   19.7580   -2.1650 O.2   111  LEU111     -0.2867
     69  CB       -13.8770   18.6690    0.8910 C.3   111  LEU111      0.0270
     70  CG       -14.1150   17.6400    2.0090 C.3   111  LEU111      0.0019
     71  CD1      -12.9640   16.6590    2.1870 C.3   111  LEU111      0.0001
     72  CD2      -14.4220   18.3190    3.3330 C.3   111  LEU111      0.0001
     73  N        -18.8150   16.0130   -1.3610 N.3   115  HIS115     -0.1226
     74  CA       -18.3570   15.6420   -0.0360 C.3   115  HIS115      0.1752
     75  C        -19.0950   16.4560    1.0120 C.2   115  HIS115      0.2595
     76  O        -19.3450   15.9700    2.1040 O.2   115  HIS115     -0.2718
     77  CB       -16.8640   15.8900    0.1240 C.3   115  HIS115      0.0759
     78  CG       -15.9900   14.8960   -0.5720 C.ar  115  HIS115      0.0818
     79  ND1      -15.6070   15.0330   -1.8900 N.ar  115  HIS115     -0.2268
     80  CD2      -15.3790   13.7760   -0.1180 C.ar  115  HIS115      0.1154
     81  CE1      -14.8090   14.0310   -2.2200 C.ar  115  HIS115      0.1986
     82  NE2      -14.6610   13.2510   -1.1630 N.ar  115  HIS115     -0.2212
     83  N        -19.4470   17.6960    0.6860 N.am  116  MET116     -0.1979
     84  CA       -20.0650   18.5720    1.6760 C.3   116  MET116      0.1605
     85  C        -21.5320   18.2390    1.8190 C.2   116  MET116      0.2287
     86  O        -22.0180   18.0670    2.9340 O.2   116  MET116     -0.2864
     87  CB       -19.8640   20.0370    1.3140 C.3   116  MET116      0.0413
     88  CG       -18.4080   20.4440    1.1220 C.3   116  MET116      0.0598
     89  SD       -17.7440   20.8290    2.7310 S.3   116  MET116     -0.1393
     90  CE       -16.1760   21.6210    2.3410 C.3   116  MET116      0.0692
     91  N        -21.3750   15.0120    3.6530 N.3   119  GLY119     -0.1210
     92  CA       -20.9620   15.2580    5.0200 C.3   119  GLY119      0.1956
     93  C        -22.0440   15.8510    5.8920 C.2   119  GLY119      0.2611
     94  O        -22.3840   15.2790    6.9000 O.2   119  GLY119     -0.2717
     95  N        -22.5800   17.0040    5.5070 N.am  120  TYR120     -0.1976
     96  CA       -23.6560   17.6490    6.2590 C.3   120  TYR120      0.1639
     97  C        -24.9860   16.9840    5.9560 C.2   120  TYR120      0.2290
     98  O        -26.0260   17.4860    6.3630 O.2   120  TYR120     -0.2864
     99  CB       -23.7460   19.1500    5.9270 C.3   120  TYR120      0.0560
    100  CG       -22.5300   19.9500    6.3720 C.ar  120  TYR120     -0.0198
    101  CD1      -22.3770   20.3250    7.7090 C.ar  120  TYR120     -0.0009
    102  CD2      -21.5160   20.2990    5.4640 C.ar  120  TYR120     -0.0009
    103  CE1      -21.2530   21.0200    8.1370 C.ar  120  TYR120      0.0417
    104  CE2      -20.3810   20.9990    5.8870 C.ar  120  TYR120      0.0417
    105  CZ       -20.2630   21.3610    7.2280 C.ar  120  TYR120      0.1957
    106  OH       -19.1720   22.0690    7.6860 O.3   120  TYR120     -0.2866
    107  N        -27.0120   16.1060    2.9930 N.3   122  ARG122     -0.1245
    108  CA       -27.8960   16.9560    2.2120 C.3   122  ARG122      0.1563
    109  C        -28.3300   16.1620    0.9930 C.2   122  ARG122      0.2260
    110  O        -27.8270   16.3590   -0.1320 O.2   122  ARG122     -0.2867
    111  CB       -27.2060   18.2780    1.7970 C.3   122  ARG122      0.0307
    112  CG       -26.4840   19.0580    2.9060 C.3   122  ARG122      0.0489
    113  CD       -27.3920   19.5730    3.9850 C.3   122  ARG122      0.2205
    114  NE       -26.6610   20.5190    4.8190 N.pl3 122  ARG122     -0.0865
    115  CZ       -27.0350   20.9500    6.0320 C.cat 122  ARG122      0.5346
    116  NH1      -28.1720   20.5260    6.5890 N.pl3 122  ARG122      0.1354
    117  NH2      -26.2690   21.8250    6.6850 N.pl3 122  ARG122      0.1354
    118  N         -7.8640   12.0160    1.6370 N.3   142  ARG142     -0.1245
    119  CA        -7.7080   10.6750    2.2210 C.3   142  ARG142      0.1563
    120  C         -8.0080    9.5220    1.2300 C.2   142  ARG142      0.2260
    121  O         -8.0050    8.3530    1.6120 O.2   142  ARG142     -0.2867
    122  CB        -8.5450   10.5270    3.4940 C.3   142  ARG142      0.0307
    123  CG        -8.0000   11.2620    4.7090 C.3   142  ARG142      0.0489
    124  CD        -9.1630   11.7200    5.5460 C.3   142  ARG142      0.2205
    125  NE       -10.2930   12.0090    4.6630 N.pl3 142  ARG142     -0.0865
    126  CZ       -11.4600   12.5230    5.0400 C.cat 142  ARG142      0.5346
    127  NH1      -11.6970   12.8200    6.3140 N.pl3 142  ARG142      0.1354
    128  NH2      -12.3970   12.7410    4.1270 N.pl3 142  ARG142      0.1354
    129  N        -10.8420    8.8930   -0.0220 N.3   144  LEU144     -0.1245
    130  CA       -12.2930    8.7330    0.0790 C.3   144  LEU144      0.1561
    131  C        -13.0980    9.4820   -1.0070 C.2   144  LEU144      0.2260
    132  O        -12.8790   10.6720   -1.2530 O.2   144  LEU144     -0.2867
    133  CB       -12.7680    9.1580    1.4710 C.3   144  LEU144      0.0270
    134  CG       -12.0760    8.4730    2.6640 C.3   144  LEU144      0.0019
    135  CD1      -12.7130    8.8540    3.9930 C.3   144  LEU144      0.0001
    136  CD2      -12.0910    6.9470    2.5000 C.3   144  LEU144      0.0001
    137  N        -17.3680    8.2480    2.0280 N.3   149  LEU149     -0.1245
    138  CA       -17.4270    9.1370    3.1790 C.3   149  LEU149      0.1561
    139  C        -18.7760    9.0820    3.9000 C.2   149  LEU149      0.2260
    140  O        -18.8310    9.1700    5.1450 O.2   149  LEU149     -0.2867
    141  CB       -17.0920   10.5540    2.7280 C.3   149  LEU149      0.0270
    142  CG       -17.2560   11.7370    3.6800 C.3   149  LEU149      0.0019
    143  CD1      -16.5480   11.5840    5.0190 C.3   149  LEU149      0.0001
    144  CD2      -16.7480   12.9560    2.9680 C.3   149  LEU149      0.0001
    145  N        -18.5160    5.8400    5.7210 N.3   152  GLU152     -0.1231
    146  CA       -17.6640    6.0500    6.8830 C.3   152  GLU152      0.1699
    147  C        -18.3340    6.8020    8.0260 C.2   152  GLU152      0.2592
    148  O        -18.2250    6.3760    9.1630 O.2   152  GLU152     -0.2718
    149  CB       -16.3410    6.7090    6.4970 C.3   152  GLU152      0.0402
    150  CG       -15.3300    5.7360    5.8760 C.3   152  GLU152      0.1161
    151  CD       -15.0250    4.5350    6.7850 C.2   152  GLU152      0.3649
    152  OE1      -14.4110    4.7110    7.8700 O.co2 152  GLU152     -0.2457
    153  OE2      -15.4240    3.4080    6.4100 O.co2 152  GLU152     -0.2457
    154  N        -19.0240    7.9050    7.7370 N.am  153  ILE153     -0.1980
    155  CA       -19.7570    8.6420    8.7830 C.3   153  ILE153      0.1595
    156  C        -20.8970    7.7970    9.3640 C.2   153  ILE153      0.2287
    157  O        -21.0920    7.7450   10.5870 O.2   153  ILE153     -0.2864
    158  CB       -20.3350    9.9690    8.2650 C.3   153  ILE153      0.0276
    159  CG1      -19.2060   10.9400    7.9310 C.3   153  ILE153      0.0022
    160  CG2      -21.2740   10.5800    9.2880 C.3   153  ILE153      0.0022
    161  CD1      -19.6350   12.0890    7.0260 C.3   153  ILE153      0.0001
    162  N        -20.0990    5.2740   12.1540 N.3   156  THR156     -0.1203
    163  CA       -19.7620    5.8600   13.4530 C.3   156  THR156      0.1994
    164  C        -20.9160    6.5620   14.1720 C.2   156  THR156      0.2619
    165  O        -20.7340    7.0800   15.2700 O.2   156  THR156     -0.2717
    166  CB       -18.6220    6.8880   13.3260 C.3   156  THR156      0.1784
    167  OG1      -19.1840    8.2030   13.2820 O.3   156  THR156     -0.2211
    168  CG2      -17.7560    6.6260   12.0700 C.3   156  THR156      0.0376
    169  N        -22.0890    6.6060   13.5540 N.am  157  THR157     -0.1939
    170  CA       -23.2520    7.1830   14.2100 C.3   157  THR157      0.2013
    171  C        -23.9410    6.0970   15.0310 C.2   157  THR157      0.2484
    172  O        -24.3960    5.0950   14.4600 O.2   157  THR157     -0.2729
    173  CB       -24.2660    7.7560   13.2040 C.3   157  THR157      0.1807
    174  OG1      -23.5840    8.3330   12.0820 O.3   157  THR157     -0.2208
    175  CG2      -25.1190    8.8190   13.8820 C.3   157  THR157      0.0379
    176  N        -23.9950    6.2770   16.3740 N.am  158  PRO158     -0.2726
    177  CA       -24.6790    5.3790   17.3320 C.3   158  PRO158      0.1402
    178  C        -26.0140    4.7930   16.8270 C.2   158  PRO158      0.2269
    179  O        -26.9810    5.5310   16.6100 O.2   158  PRO158     -0.2865
    180  CB       -24.8900    6.2670   18.5720 C.3   158  PRO158      0.0296
    181  CG       -24.1540    7.5840   18.2920 C.3   158  PRO158      0.0237
    182  CD       -23.3210    7.3910   17.0690 C.3   158  PRO158      0.0939
    183  N        -30.4710   11.5950   11.3890 N.3   167  ARG167     -0.1245
    184  CA       -29.3370   11.5350   10.4720 C.3   167  ARG167      0.1563
    185  C        -29.2160   10.2010    9.7700 C.2   167  ARG167      0.2260
    186  O        -28.7860   10.1500    8.6060 O.2   167  ARG167     -0.2867
    187  CB       -28.0470   11.7790   11.2270 C.3   167  ARG167      0.0307
    188  CG       -28.0560   13.0510   12.0560 C.3   167  ARG167      0.0489
    189  CD       -26.6450   13.3940   12.5110 C.3   167  ARG167      0.2205
    190  NE       -25.7310   13.6320   11.3850 N.pl3 167  ARG167     -0.0865
    191  CZ       -24.4510   13.2550   11.3480 C.cat 167  ARG167      0.5346
    192  NH1      -23.8960   12.5910   12.3670 N.pl3 167  ARG167      0.1354
    193  NH2      -23.7250   13.5440   10.2750 N.pl3 167  ARG167      0.1354
@<TRIPOS>BOND
     1    29    28    1
     2    23    24    1
     3    81    79   ar
     4    81    82   ar
     5    68    67    2
     6    15    14    2
     7    14    13    1
     8    79    78   ar
     9    28    30    1
    10    28    27    1
    11    67    66    1
    12    24    27    1
    13    24    25    1
    14    73    74    1
    15   132   131    2
    16    82    80   ar
    17   131   130    1
    18    13    12    1
    19    13    16    1
    20    78    80   ar
    21    78    77    1
    22    66    65    1
    23    66    69    1
    24    25    31   am
    25    25    26    2
    26   110   109    2
    27    74    77    1
    28    74    75    1
    29   129   130    1
    30   130   133    1
    31    31    32    1
    32    16    17    1
    33    83    75   am
    34    83    84    1
    35    69    70    1
    36    33    32    1
    37    33    34    2
    38   109   108    1
    39    75    76    2
    40    88    87    1
    41    88    89    1
    42    32    35    1
    43   120   121    2
    44   120   119    1
    45    42    43    1
    46    87    84    1
    47    17    18    1
    48    35    36    1
    49    38    36   ar
    50    38    40   ar
    51   133   134    1
    52   118   119    1
    53    84    85    1
    54   111   108    1
    55   111   112    1
    56    85    86    2
    57    70    71    1
    58    70    72    1
    59   137   138    1
    60    18    19    1
    61    36    37   ar
    62    40    41   ar
    63   108   107    1
    64    54    55    1
    65   119   122    1
    66    90    89    1
    67   136   134    1
    68   134   135    1
    69     1     2    1
    70    43    44    1
    71   141   138    1
    72   141   142    1
    73   112   113    1
    74    46    44   am
    75    46    47    1
    76    19    20    2
    77   144   142    1
    78    48    47    1
    79    48    49    2
    80   138   139    1
    81    44    45    2
    82   122   123    1
    83    37    39   ar
    84    41    39   ar
    85    55    56    1
    86    55    58    1
    87    91    92    1
    88    47    50    1
    89   142   143    1
    90    56    57    2
    91    50    51    1
    92   139   140    2
    93    52    51    1
    94   113   114    1
    95     2     3    1
    96     2     5    1
    97   128   126    1
    98    20    21    1
    99    20    22    1
   100     3     4    2
   101    51    53    1
   102    58    59    1
   103   125   126    2
   104   125   124    1
   105   123   124    1
   106   114   115    2
   107    10     9    1
   108    92    93    1
   109    59    60    1
   110   126   127    1
   111     6     5    1
   112     6     7    1
   113   102   104   ar
   114   102   100   ar
   115    95    93   am
   116    95    96    1
   117   145   146    1
   118     9    11    1
   119     9     8    2
   120   150   149    1
   121   150   151    1
   122   104   105   ar
   123    93    94    2
   124    99    96    1
   125    99   100    1
   126    97    96    1
   127    97    98    2
   128   115   116    1
   129   115   117    1
   130     7     8    1
   131    60    61    1
   132   100   101   ar
   133   153   151   ar
   134   149   146    1
   135   151   152   ar
   136   146   147    1
   137   161   159    1
   138   105   106    1
   139   105   103   ar
   140    61    62    2
   141   101   103   ar
   142   154   147   am
   143   154   155    1
   144   159   158    1
   145   147   148    2
   146   158   155    1
   147   158   160    1
   148   186   185    2
   149    62    63    1
   150    62    64    1
   151   155   156    1
   152   156   157    2
   153   185   184    1
   154   193   191    1
   155   184   187    1
   156   184   183    1
   157   187   188    1
   158   191   190    2
   159   191   192    1
   160   190   189    1
   161   188   189    1
   162   168   166    1
   163   174   173    1
   164   162   163    1
   165   173   175    1
   166   173   170    1
   167   167   166    1
   168   166   163    1
   169   163   164    1
   170   169   164   am
   171   169   170    1
   172   164   165    2
   173   170   171    1
   174   172   171    2
   175   171   176   am
   176   176   182    1
   177   176   177    1
   178   179   178    2
   179   178   177    1
   180   182   181    1
   181   177   180    1
   182   181   180    1
