@<TRIPOS>MOLECULE
tmp/3deqC00.pdb
 180 163 0 0 0
SMALL
GASTEIGER

@<TRIPOS>ATOM
      1  N        106.0950  -74.2870  -14.6500 N.3    14  TYR14      -0.1241
      2  CA       105.2500  -74.5490  -13.4870 C.3    14  TYR14       0.1605
      3  C        104.0830  -75.4180  -13.9660 C.2    14  TYR14       0.2264
      4  O        103.5630  -75.2060  -15.0590 O.2    14  TYR14      -0.2867
      5  CB       104.6990  -73.2370  -12.9240 C.3    14  TYR14       0.0534
      6  CG       105.6530  -72.4730  -12.0330 C.ar   14  TYR14      -0.0201
      7  CD1      105.7850  -72.7990  -10.6810 C.ar   14  TYR14      -0.0009
      8  CD2      106.4240  -71.4250  -12.5350 C.ar   14  TYR14      -0.0009
      9  CE1      106.6550  -72.1010   -9.8530 C.ar   14  TYR14       0.0417
     10  CE2      107.3030  -70.7220  -11.7140 C.ar   14  TYR14       0.0417
     11  CZ       107.4120  -71.0670  -10.3740 C.ar   14  TYR14       0.1957
     12  OH       108.2870  -70.3930   -9.5560 O.3    14  TYR14      -0.2866
     13  N        101.6080  -69.9230  -11.0960 N.3    18  PHE18      -0.1241
     14  CA       101.7470  -69.6950   -9.6610 C.3    18  PHE18       0.1605
     15  C        101.4480  -68.2300   -9.3360 C.2    18  PHE18       0.2264
     16  O        102.1720  -67.3250   -9.7530 O.2    18  PHE18      -0.2867
     17  CB       103.1660  -70.0720   -9.2170 C.3    18  PHE18       0.0534
     18  CG       103.3970  -69.9390   -7.7410 C.ar   18  PHE18      -0.0203
     19  CD1      102.4220  -70.3460   -6.8330 C.ar   18  PHE18      -0.0042
     20  CD2      104.6000  -69.4360   -7.2590 C.ar   18  PHE18      -0.0042
     21  CE1      102.6420  -70.2530   -5.4650 C.ar   18  PHE18      -0.0003
     22  CE2      104.8370  -69.3390   -5.8930 C.ar   18  PHE18      -0.0003
     23  CZ       103.8560  -69.7470   -4.9900 C.ar   18  PHE18      -0.0000
     24  N        100.9230  -65.1130   -6.6320 N.3    20  ILE20      -0.1245
     25  CA       101.1950  -64.5440   -5.3130 C.3    20  ILE20       0.1561
     26  C        100.8820  -63.0600   -5.4510 C.2    20  ILE20       0.2260
     27  O        100.7340  -62.5570   -6.5660 O.2    20  ILE20      -0.2867
     28  CB       102.6780  -64.6620   -4.8800 C.3    20  ILE20       0.0252
     29  CG1      103.5550  -63.8230   -5.8080 C.3    20  ILE20       0.0019
     30  CG2      103.1070  -66.1150   -4.8550 C.3    20  ILE20       0.0019
     31  CD1      104.9350  -63.5250   -5.2480 C.3    20  ILE20       0.0001
     32  N        101.9750  -60.7810   -8.5220 N.3    23  SER23      -0.1217
     33  CA       102.8050  -61.5450   -9.4480 C.3    23  SER23       0.1889
     34  C        102.2850  -62.9310   -9.8220 C.2    23  SER23       0.2288
     35  O        101.8130  -63.6920   -8.9720 O.2    23  SER23      -0.2866
     36  CB       104.2130  -61.6810   -8.8680 C.3    23  SER23       0.2089
     37  OG       104.9950  -62.5640   -9.6440 O.3    23  SER23      -0.2183
     38  N        103.4390  -66.3470  -12.3020 N.3    25  SER25      -0.1217
     39  CA       104.4780  -66.9600  -13.1150 C.3    25  SER25       0.1889
     40  C        104.0920  -68.3600  -13.5620 C.2    25  SER25       0.2288
     41  O        103.4740  -69.1120  -12.8150 O.2    25  SER25      -0.2866
     42  CB       105.7920  -67.0300  -12.3330 C.3    25  SER25       0.2089
     43  OG       106.2760  -65.7360  -12.0370 O.3    25  SER25      -0.2183
     44  N        115.3610  -63.1110   -8.9980 N.3    50  SER50      -0.1217
     45  CA       114.0660  -62.5090   -8.7400 C.3    50  SER50       0.1889
     46  C        114.1070  -61.0170   -9.0390 C.2    50  SER50       0.2288
     47  O        114.8410  -60.2660   -8.3990 O.2    50  SER50      -0.2866
     48  CB       113.6650  -62.7180   -7.2820 C.3    50  SER50       0.2089
     49  OG       112.4810  -61.9910   -6.9770 O.3    50  SER50      -0.2183
     50  N        111.4020  -58.9680   -8.8330 N.3    52  ARG52      -0.1245
     51  CA       110.5990  -58.3850   -7.7580 C.3    52  ARG52       0.1563
     52  C        111.3400  -58.2250   -6.4330 C.2    52  ARG52       0.2260
     53  O        111.2970  -57.1590   -5.8150 O.2    52  ARG52      -0.2867
     54  CB       109.3350  -59.2310   -7.5210 C.3    52  ARG52       0.0307
     55  CG       108.3600  -58.6430   -6.4810 C.3    52  ARG52       0.0489
     56  CD       107.1030  -59.5160   -6.3320 C.3    52  ARG52       0.2205
     57  NE       107.4590  -60.8750   -5.9370 N.pl3  52  ARG52      -0.0865
     58  CZ       107.6440  -61.2740   -4.6820 C.cat  52  ARG52       0.5346
     59  NH1      107.4880  -60.4190   -3.6730 N.pl3  52  ARG52       0.1354
     60  NH2      108.0280  -62.5240   -4.4390 N.pl3  52  ARG52       0.1354
     61  N        103.0560  -75.2530   -0.9220 N.3   132  THR132     -0.1218
     62  CA       102.3160  -74.0070   -1.0570 C.3   132  THR132      0.1862
     63  C        101.0260  -73.9960   -1.8770 C.2   132  THR132      0.2287
     64  O        100.9370  -74.6140   -2.9360 O.2   132  THR132     -0.2866
     65  CB       103.2490  -72.9250   -1.6520 C.3   132  THR132      0.1770
     66  OG1      104.4500  -72.8430   -0.8680 O.3   132  THR132     -0.2211
     67  CG2      102.5530  -71.5690   -1.6820 C.3   132  THR132      0.0375
     68  N        101.4860  -74.0010    3.3530 N.3   157  LYS157     -0.1245
     69  CA       101.7470  -72.5760    3.2020 C.3   157  LYS157      0.1561
     70  C        100.6720  -71.9840    2.3130 C.2   157  LYS157      0.2260
     71  O        100.4800  -72.4080    1.1760 O.2   157  LYS157     -0.2867
     72  CB       103.1490  -72.3540    2.6140 C.3   157  LYS157      0.0271
     73  CG       103.4990  -70.8980    2.3240 C.3   157  LYS157      0.0035
     74  CD       105.0090  -70.6840    2.1920 C.3   157  LYS157      0.0206
     75  CE       105.3250  -69.3460    1.5390 C.3   157  LYS157      0.1093
     76  NZ       106.7520  -68.9340    1.7670 N.3   157  LYS157     -0.1314
     77  N         99.0920  -68.6620    0.4270 N.3   159  LYS159     -0.1245
     78  CA        99.3720  -67.3370   -0.0880 C.3   159  LYS159      0.1561
     79  C         98.1290  -66.4610    0.0250 C.2   159  LYS159      0.2260
     80  O         97.0250  -66.9030   -0.3040 O.2   159  LYS159     -0.2867
     81  CB        99.8030  -67.4290   -1.5500 C.3   159  LYS159      0.0271
     82  CG       101.1560  -68.0980   -1.7710 C.3   159  LYS159      0.0035
     83  CD       102.2890  -67.2750   -1.1760 C.3   159  LYS159      0.0206
     84  CE       103.6460  -67.8100   -1.6220 C.3   159  LYS159      0.1093
     85  NZ       104.7620  -66.9760   -1.0950 N.3   159  LYS159     -0.1314
     86  N        101.4210  -66.4140    3.9750 N.3   186  ASP186     -0.1239
     87  CA       102.3570  -65.4840    3.3520 C.3   186  ASP186      0.1674
     88  C        101.6180  -64.4390    2.5130 C.2   186  ASP186      0.2266
     89  O        101.0170  -64.7620    1.4890 O.2   186  ASP186     -0.2867
     90  CB       103.3380  -66.2770    2.4780 C.3   186  ASP186      0.1410
     91  CG       104.4670  -65.4230    1.9240 C.2   186  ASP186      0.3668
     92  OD1      104.4710  -64.1860    2.1350 O.co2 186  ASP186     -0.2456
     93  OD2      105.3560  -66.0010    1.2580 O.co2 186  ASP186     -0.2456
     94  N        103.1330  -61.7410    1.1380 N.3   188  ASN188     -0.1240
     95  CA       104.0160  -61.1220    0.1660 C.3   188  ASN188      0.1653
     96  C        103.8340  -59.5950    0.0730 C.2   188  ASN188      0.2266
     97  O        103.6490  -59.0400   -1.0080 O.2   188  ASN188     -0.2867
     98  CB       103.8360  -61.7790   -1.2070 C.3   188  ASN188      0.1155
     99  CG       104.4810  -63.1490   -1.2700 C.2   188  ASN188      0.2627
    100  OD1      103.8000  -64.1810   -1.3840 O.2   188  ASN188     -0.2716
    101  ND2      105.8140  -63.1680   -1.1740 N.am  188  ASN188     -0.0877
    102  N        104.2060  -64.6820    7.2550 N.3   214  GLU214     -0.1245
    103  CA       105.2500  -64.0590    6.4450 C.3   214  GLU214      0.1567
    104  C        104.9880  -62.7040    5.8170 C.2   214  GLU214      0.2260
    105  O        103.9570  -62.4810    5.1880 O.2   214  GLU214     -0.2867
    106  CB       105.6780  -64.9810    5.2920 C.3   214  GLU214      0.0388
    107  CG       106.4520  -66.2110    5.6650 C.3   214  GLU214      0.1160
    108  CD       106.9550  -66.9500    4.4330 C.2   214  GLU214      0.3649
    109  OE1      106.5680  -68.1230    4.2450 O.co2 214  GLU214     -0.2457
    110  OE2      107.7300  -66.3490    3.6480 O.co2 214  GLU214     -0.2457
    111  N        110.5960  -61.5630    5.1270 N.3   239  ASP239     -0.1225
    112  CA       111.1050  -62.3060    3.9870 C.3   239  ASP239      0.1805
    113  C        111.7360  -61.2470    3.1000 C.2   239  ASP239      0.2597
    114  O        112.9550  -61.0500    3.1230 O.2   239  ASP239     -0.2718
    115  CB       109.9890  -63.0390    3.2230 C.3   239  ASP239      0.1424
    116  CG       110.5160  -63.7850    1.9930 C.2   239  ASP239      0.3668
    117  OD1      111.6870  -63.5620    1.6080 O.co2 239  ASP239     -0.2456
    118  OD2      109.7620  -64.5840    1.3950 O.co2 239  ASP239     -0.2456
    119  N        110.9060  -60.5480    2.3330 N.am  240  GLU240     -0.1979
    120  CA       111.4110  -59.4900    1.4600 C.3   240  GLU240      0.1602
    121  C        112.2160  -58.4380    2.2120 C.2   240  GLU240      0.2287
    122  O        113.0980  -57.8110    1.6330 O.2   240  GLU240     -0.2864
    123  CB       110.2690  -58.8070    0.7050 C.3   240  GLU240      0.0415
    124  CG       109.6720  -59.6600   -0.4030 C.3   240  GLU240      0.1163
    125  CD       108.5690  -60.5810    0.0790 C.2   240  GLU240      0.3649
    126  OE1      108.5200  -60.9070    1.2900 O.co2 240  GLU240     -0.2457
    127  OE2      107.7550  -60.9910   -0.7730 O.co2 240  GLU240     -0.2457
    128  N        116.6580  -67.1970    2.5160 N.3   263  LYS263     -0.1245
    129  CA       116.6550  -67.7620    1.1750 C.3   263  LYS263      0.1561
    130  C        118.0520  -67.5470    0.6390 C.2   263  LYS263      0.2260
    131  O        118.5340  -66.4180    0.5940 O.2   263  LYS263     -0.2867
    132  CB       115.6560  -67.0610    0.2560 C.3   263  LYS263      0.0271
    133  CG       114.2000  -67.2750    0.6380 C.3   263  LYS263      0.0035
    134  CD       113.2730  -66.6960   -0.4180 C.3   263  LYS263      0.0206
    135  CE       111.8180  -66.7450    0.0410 C.3   263  LYS263      0.1093
    136  NZ       110.8980  -66.3280   -1.0500 N.3   263  LYS263     -0.1314
    137  N        112.4780  -70.6020   -0.6040 N.3   290  CYS290     -0.1221
    138  CA       113.0250  -70.6870   -1.9450 C.3   290  CYS290      0.1808
    139  C        112.3150  -69.7320   -2.8940 C.2   290  CYS290      0.2601
    140  O        111.3160  -69.1090   -2.5300 O.2   290  CYS290     -0.2717
    141  CB       112.8790  -72.1200   -2.4670 C.3   290  CYS290      0.0970
    142  SG       111.1720  -72.7410   -2.4950 S.3   290  CYS290     -0.0800
    143  N        112.8510  -69.6250   -4.1060 N.am  291  MET291     -0.1979
    144  CA       112.2860  -68.7810   -5.1570 C.3   291  MET291      0.1605
    145  C        111.6910  -69.7340   -6.1970 C.2   291  MET291      0.2287
    146  O        110.6180  -70.3000   -5.9860 O.2   291  MET291     -0.2864
    147  CB       113.3830  -67.9230   -5.8030 C.3   291  MET291      0.0413
    148  CG       114.0920  -66.9860   -4.8370 C.3   291  MET291      0.0598
    149  SD       113.0570  -65.6180   -4.2470 S.3   291  MET291     -0.1393
    150  CE       114.3240  -64.3870   -3.8710 C.3   291  MET291      0.0692
    151  N        110.4220  -74.2360    3.7400 N.3   315  ASP315     -0.1239
    152  CA       109.5420  -73.9790    2.6000 C.3   315  ASP315      0.1674
    153  C        110.4020  -74.1720    1.3520 C.2   315  ASP315      0.2266
    154  O        110.8000  -73.2100    0.6900 O.2   315  ASP315     -0.2867
    155  CB       108.9780  -72.5510    2.6620 C.3   315  ASP315      0.1410
    156  CG       108.0710  -72.2290    1.4800 C.2   315  ASP315      0.3668
    157  OD1      107.3280  -73.1320    1.0420 O.co2 315  ASP315     -0.2456
    158  OD2      108.0940  -71.0730    0.9920 O.co2 315  ASP315     -0.2456
    159  N        109.7700  -76.0890   -1.6990 N.3   317  ASP317     -0.1225
    160  CA       108.8780  -76.8410   -2.5640 C.3   317  ASP317      0.1805
    161  C        108.8030  -76.4020   -4.0190 C.2   317  ASP317      0.2598
    162  O        107.9710  -76.9140   -4.7710 O.2   317  ASP317     -0.2718
    163  CB       107.4730  -76.7970   -1.9570 C.3   317  ASP317      0.1424
    164  CG       106.8960  -75.3770   -1.9190 C.2   317  ASP317      0.3668
    165  OD1      107.6710  -74.4100   -2.0950 O.co2 317  ASP317     -0.2456
    166  OD2      105.6720  -75.2300   -1.7070 O.co2 317  ASP317     -0.2456
    167  N        109.6520  -75.4640   -4.4270 N.am  318  SER318     -0.1952
    168  CA       109.6050  -74.9880   -5.8050 C.3   318  SER318      0.1924
    169  C        109.8300  -76.1140   -6.8070 C.2   318  SER318      0.2314
    170  O        109.1610  -76.1770   -7.8430 O.2   318  SER318     -0.2863
    171  CB       110.6350  -73.8780   -6.0290 C.3   318  SER318      0.2116
    172  OG       111.9180  -74.2770   -5.5880 O.3   318  SER318     -0.2180
    173  N        106.8480  -77.9110   -7.6220 N.3   321  MET321     -0.1245
    174  CA       105.8570  -77.1670   -8.3980 C.3   321  MET321      0.1570
    175  C        106.2100  -77.0600   -9.8810 C.2   321  MET321      0.2261
    176  O        105.3660  -76.6870  -10.6950 O.2   321  MET321     -0.2867
    177  CB       105.6890  -75.7610   -7.8200 C.3   321  MET321      0.0387
    178  CG       105.1870  -75.7360   -6.3890 C.3   321  MET321      0.0595
    179  SD       105.1540  -74.0570   -5.7310 S.3   321  MET321     -0.1393
    180  CE       103.7230  -73.4210   -6.5810 C.3   321  MET321      0.0692
@<TRIPOS>BOND
     1     4     3    2
     2     1     2    1
     3     3     2    1
     4    40    39    1
     5    40    41    2
     6     2     5    1
     7    39    42    1
     8    39    38    1
     9     5     6    1
    10     8     6   ar
    11     8    10   ar
    12    42    43    1
    13     6     7   ar
    14    10    11   ar
    15    13    14    1
    16   176   175    2
    17     7     9   ar
    18    11     9   ar
    19    11    12    1
    20   175   174    1
    21    34    33    1
    22    34    35    2
    23    16    15    2
    24    14    15    1
    25    14    17    1
    26    37    36    1
    27    33    36    1
    28    33    32    1
    29    17    18    1
    30    46    45    1
    31    46    47    2
    32    44    45    1
    33    50    51    1
    34    45    48    1
    35   174   177    1
    36   174   173    1
    37   170   169    2
    38   177   178    1
    39    51    54    1
    40    51    52    1
    41    18    20   ar
    42    18    19   ar
    43    54    55    1
    44    48    49    1
    45    20    22   ar
    46    19    21   ar
    47   169   168    1
    48    24    25    1
    49   180   179    1
    50    27    26    2
    51    55    56    1
    52    52    53    2
    53   178   179    1
    54    56    57    1
    55   145   146    2
    56   145   144    1
    57   171   168    1
    58   171   172    1
    59    57    58    2
    60    22    23   ar
    61    29    31    1
    62    29    28    1
    63   168   167    1
    64   147   144    1
    65   147   148    1
    66    21    23   ar
    67    26    25    1
    68    25    28    1
    69   144   143    1
    70    28    30    1
    71   148   149    1
    72   162   161    2
    73    58    60    1
    74    58    59    1
    75   167   161   am
    76   149   150    1
    77   143   139   am
    78   161   160    1
    79    64    63    2
    80   139   140    2
    81   139   138    1
    82   160   163    1
    83   160   159    1
    84   142   141    1
    85   141   138    1
    86   165   164   ar
    87   163   164    1
    88   138   137    1
    89   164   166   ar
    90    63    62    1
    91    82    81    1
    92    82    83    1
    93    67    65    1
    94    65    62    1
    95    65    66    1
    96    84    83    1
    97    84    85    1
    98    81    78    1
    99   100    99    2
   100    99    98    1
   101    99   101   am
   102    98    95    1
   103    62    61    1
   104   136   135    1
   105    97    96    2
   106   127   125   ar
   107   134   135    1
   108   134   133    1
   109   124   125    1
   110   124   123    1
   111    80    79    2
   112    78    79    1
   113    78    77    1
   114    96    95    1
   115   125   126   ar
   116    95    94    1
   117   132   133    1
   118   132   129    1
   119   131   130    2
   120   130   129    1
   121   154   153    2
   122   123   120    1
   123   158   156   ar
   124   157   156   ar
   125   129   128    1
   126    71    70    2
   127    93    91   ar
   128   153   152    1
   129   118   116   ar
   130   120   121    1
   131   120   119    1
   132   156   155    1
   133    89    88    2
   134    75    76    1
   135    75    74    1
   136   117   116   ar
   137   122   121    2
   138    91    92   ar
   139    91    90    1
   140   116   115    1
   141    74    73    1
   142    70    69    1
   143    73    72    1
   144   119   113   am
   145    90    87    1
   146    88    87    1
   147   152   155    1
   148   152   151    1
   149    72    69    1
   150   113   114    2
   151   113   112    1
   152    69    68    1
   153   115   112    1
   154    87    86    1
   155   110   108   ar
   156   112   111    1
   157   109   108   ar
   158   108   107    1
   159   105   104    2
   160   106   107    1
   161   106   103    1
   162   104   103    1
   163   103   102    1
