@<TRIPOS>MOLECULE
tmp/3derC00.pdb
 178 162 0 0 0
SMALL
GASTEIGER

@<TRIPOS>ATOM
      1  N        105.5260  -73.9850  -14.6590 N.3    14  TYR14      -0.1241
      2  CA       104.6960  -74.2400  -13.4860 C.3    14  TYR14       0.1605
      3  C        103.5480  -75.1290  -13.9660 C.2    14  TYR14       0.2264
      4  O        103.0380  -74.9290  -15.0670 O.2    14  TYR14      -0.2867
      5  CB       104.1220  -72.9260  -12.9550 C.3    14  TYR14       0.0534
      6  CG       105.0630  -72.1450  -12.0690 C.ar   14  TYR14      -0.0201
      7  CD1      105.1500  -72.4230  -10.7070 C.ar   14  TYR14      -0.0009
      8  CD2      105.8690  -71.1300  -12.5900 C.ar   14  TYR14      -0.0009
      9  CE1      106.0110  -71.7120   -9.8780 C.ar   14  TYR14       0.0417
     10  CE2      106.7400  -70.4100  -11.7690 C.ar   14  TYR14       0.0417
     11  CZ       106.8020  -70.7110  -10.4130 C.ar   14  TYR14       0.1957
     12  OH       107.6570  -70.0160   -9.5870 O.3    14  TYR14      -0.2866
     13  N        101.0740  -69.6310  -11.0040 N.3    18  PHE18      -0.1241
     14  CA       101.2250  -69.4140   -9.5680 C.3    18  PHE18       0.1605
     15  C        100.8970  -67.9600   -9.2210 C.2    18  PHE18       0.2264
     16  O        101.6450  -67.0440   -9.5670 O.2    18  PHE18      -0.2867
     17  CB       102.6630  -69.7640   -9.1630 C.3    18  PHE18       0.0534
     18  CG       102.9400  -69.6420   -7.6920 C.ar   18  PHE18      -0.0203
     19  CD1      101.9510  -69.9200   -6.7520 C.ar   18  PHE18      -0.0042
     20  CD2      104.2120  -69.2960   -7.2460 C.ar   18  PHE18      -0.0042
     21  CE1      102.2260  -69.8570   -5.3850 C.ar   18  PHE18      -0.0003
     22  CE2      104.5030  -69.2300   -5.8800 C.ar   18  PHE18      -0.0003
     23  CZ       103.5090  -69.5110   -4.9490 C.ar   18  PHE18      -0.0000
     24  N        100.3630  -64.9100   -6.5820 N.3    20  ILE20      -0.1245
     25  CA       100.6600  -64.3600   -5.2610 C.3    20  ILE20       0.1561
     26  C        100.3610  -62.8680   -5.4040 C.2    20  ILE20       0.2260
     27  O        100.1940  -62.3690   -6.5180 O.2    20  ILE20      -0.2867
     28  CB       102.1430  -64.5150   -4.8230 C.3    20  ILE20       0.0252
     29  CG1      103.0490  -63.6560   -5.6980 C.3    20  ILE20       0.0019
     30  CG2      102.5570  -65.9730   -4.8630 C.3    20  ILE20       0.0019
     31  CD1      104.4460  -63.5040   -5.1350 C.3    20  ILE20       0.0001
     32  N        101.5630  -60.6600   -8.4790 N.3    23  SER23      -0.1217
     33  CA       102.3960  -61.4490   -9.3740 C.3    23  SER23       0.1889
     34  C        101.8150  -62.8040   -9.7530 C.2    23  SER23       0.2288
     35  O        101.3460  -63.5530   -8.8980 O.2    23  SER23      -0.2866
     36  CB       103.7740  -61.6590   -8.7410 C.3    23  SER23       0.2089
     37  OG       104.5400  -62.5940   -9.4830 O.3    23  SER23      -0.2183
     38  N        102.9260  -66.1570  -12.1520 N.3    25  SER25      -0.1217
     39  CA       104.0170  -66.7420  -12.9130 C.3    25  SER25       0.1889
     40  C        103.6170  -68.0810  -13.5090 C.2    25  SER25       0.2288
     41  O        103.0380  -68.9220  -12.8290 O.2    25  SER25      -0.2866
     42  CB       105.2450  -66.9350  -12.0160 C.3    25  SER25       0.2089
     43  OG       105.5970  -65.7330  -11.3540 O.3    25  SER25      -0.2183
     44  N        110.8200  -58.8660   -8.8070 N.3    52  ARG52      -0.1245
     45  CA       110.0100  -58.2570   -7.7610 C.3    52  ARG52       0.1563
     46  C        110.7500  -58.0520   -6.4450 C.2    52  ARG52       0.2260
     47  O        110.6720  -56.9780   -5.8440 O.2    52  ARG52      -0.2867
     48  CB       108.7570  -59.1050   -7.5080 C.3    52  ARG52       0.0307
     49  CG       107.7700  -58.4960   -6.5060 C.3    52  ARG52       0.0489
     50  CD       106.5600  -59.4100   -6.3130 C.3    52  ARG52       0.2205
     51  NE       106.9860  -60.7190   -5.8360 N.pl3  52  ARG52      -0.0865
     52  CZ       107.0570  -61.0710   -4.5570 C.cat  52  ARG52       0.5346
     53  NH1      106.7090  -60.2160   -3.6010 N.pl3  52  ARG52       0.1354
     54  NH2      107.5190  -62.2740   -4.2340 N.pl3  52  ARG52       0.1354
     55  N        102.4690  -75.0250   -0.8970 N.3   132  THR132     -0.1218
     56  CA       101.7150  -73.7880   -1.0530 C.3   132  THR132      0.1862
     57  C        100.4130  -73.7950   -1.8600 C.2   132  THR132      0.2287
     58  O        100.3120  -74.4350   -2.9080 O.2   132  THR132     -0.2866
     59  CB       102.6470  -72.7130   -1.6660 C.3   132  THR132      0.1770
     60  OG1      103.8210  -72.5820   -0.8490 O.3   132  THR132     -0.2211
     61  CG2      101.9360  -71.3680   -1.7750 C.3   132  THR132      0.0375
     62  N        100.8720  -73.7740    3.3600 N.3   157  LYS157     -0.1245
     63  CA       101.1280  -72.3450    3.2040 C.3   157  LYS157      0.1561
     64  C        100.0420  -71.7520    2.3210 C.2   157  LYS157      0.2260
     65  O         99.8570  -72.1670    1.1820 O.2   157  LYS157     -0.2867
     66  CB       102.5230  -72.1310    2.5990 C.3   157  LYS157      0.0271
     67  CG       102.8390  -70.6940    2.2190 C.3   157  LYS157      0.0035
     68  CD       104.3460  -70.4470    2.2210 C.3   157  LYS157      0.0206
     69  CE       104.7000  -69.1590    1.4870 C.3   157  LYS157      0.1093
     70  NZ       106.1020  -68.7330    1.7910 N.3   157  LYS157     -0.1314
     71  N         98.4550  -68.4470    0.4610 N.3   159  LYS159     -0.1245
     72  CA        98.7120  -67.1170   -0.0650 C.3   159  LYS159      0.1561
     73  C         97.4580  -66.2580    0.0670 C.2   159  LYS159      0.2260
     74  O         96.3490  -66.7190   -0.2070 O.2   159  LYS159     -0.2867
     75  CB        99.1170  -67.1970   -1.5370 C.3   159  LYS159      0.0271
     76  CG       100.4630  -67.8710   -1.7890 C.3   159  LYS159      0.0035
     77  CD       101.6120  -67.0270   -1.2670 C.3   159  LYS159      0.0206
     78  CE       102.9560  -67.6680   -1.5900 C.3   159  LYS159      0.1093
     79  NZ       104.1010  -66.8040   -1.1910 N.3   159  LYS159     -0.1314
     80  N        100.8360  -66.1940    4.0380 N.3   186  ASP186     -0.1239
     81  CA       101.7690  -65.2740    3.4060 C.3   186  ASP186      0.1674
     82  C        101.0370  -64.2260    2.5690 C.2   186  ASP186      0.2266
     83  O        100.4240  -64.5480    1.5500 O.2   186  ASP186     -0.2867
     84  CB       102.7300  -66.0750    2.5220 C.3   186  ASP186      0.1410
     85  CG       103.8510  -65.2370    1.9630 C.2   186  ASP186      0.3668
     86  OD1      103.8360  -63.9930    2.1390 O.co2 186  ASP186     -0.2456
     87  OD2      104.7530  -65.8340    1.3410 O.co2 186  ASP186     -0.2456
     88  N        102.5500  -61.5570    1.1040 N.3   188  ASN188     -0.1240
     89  CA       103.4350  -60.9480    0.1270 C.3   188  ASN188      0.1653
     90  C        103.2520  -59.4250    0.0260 C.2   188  ASN188      0.2266
     91  O        103.1000  -58.8760   -1.0620 O.2   188  ASN188     -0.2867
     92  CB       103.2660  -61.6140   -1.2410 C.3   188  ASN188      0.1155
     93  CG       103.8720  -63.0050   -1.2780 C.2   188  ASN188      0.2627
     94  OD1      103.1660  -64.0140   -1.4290 O.2   188  ASN188     -0.2716
     95  ND2      105.1960  -63.0670   -1.1170 N.am  188  ASN188     -0.0877
     96  N        103.5520  -64.4660    7.3030 N.3   214  GLU214     -0.1245
     97  CA       104.5910  -63.8550    6.4770 C.3   214  GLU214      0.1567
     98  C        104.3290  -62.4970    5.8550 C.2   214  GLU214      0.2260
     99  O        103.2820  -62.2650    5.2570 O.2   214  GLU214     -0.2867
    100  CB       104.9880  -64.7840    5.3220 C.3   214  GLU214      0.0388
    101  CG       105.8290  -65.9710    5.6890 C.3   214  GLU214      0.1160
    102  CD       106.2570  -66.7600    4.4650 C.2   214  GLU214      0.3649
    103  OE1      105.7360  -67.8730    4.2640 O.co2 214  GLU214     -0.2457
    104  OE2      107.1080  -66.2600    3.6940 O.co2 214  GLU214     -0.2457
    105  N        109.9650  -61.4240    5.1210 N.3   239  ASP239     -0.1225
    106  CA       110.5100  -62.1770    4.0020 C.3   239  ASP239      0.1805
    107  C        111.1370  -61.1280    3.1010 C.2   239  ASP239      0.2597
    108  O        112.3570  -60.9380    3.1100 O.2   239  ASP239     -0.2718
    109  CB       109.4240  -62.9530    3.2390 C.3   239  ASP239      0.1424
    110  CG       109.9810  -63.6870    2.0160 C.2   239  ASP239      0.3668
    111  OD1      111.1730  -63.4800    1.6850 O.co2 239  ASP239     -0.2456
    112  OD2      109.2350  -64.4600    1.3750 O.co2 239  ASP239     -0.2456
    113  N        110.3040  -60.4330    2.3340 N.am  240  GLU240     -0.1979
    114  CA       110.8060  -59.3910    1.4490 C.3   240  GLU240      0.1602
    115  C        111.6260  -58.3380    2.1960 C.2   240  GLU240      0.2287
    116  O        112.5580  -57.7670    1.6330 O.2   240  GLU240     -0.2864
    117  CB       109.6520  -58.7140    0.7020 C.3   240  GLU240      0.0415
    118  CG       109.0490  -59.5680   -0.4100 C.3   240  GLU240      0.1163
    119  CD       107.8330  -60.3660    0.0430 C.2   240  GLU240      0.3649
    120  OE1      107.7750  -60.7570    1.2300 O.co2 240  GLU240     -0.2457
    121  OE2      106.9420  -60.6120   -0.7990 O.co2 240  GLU240     -0.2457
    122  N        116.1060  -67.0110    2.5870 N.3   263  LYS263     -0.1245
    123  CA       116.1460  -67.5840    1.2490 C.3   263  LYS263      0.1561
    124  C        117.5440  -67.3730    0.6990 C.2   263  LYS263      0.2260
    125  O        118.0600  -66.2570    0.7020 O.2   263  LYS263     -0.2867
    126  CB       115.1370  -66.9210    0.3160 C.3   263  LYS263      0.0271
    127  CG       113.6950  -67.1910    0.6830 C.3   263  LYS263      0.0035
    128  CD       112.7610  -66.5730   -0.3360 C.3   263  LYS263      0.0206
    129  CE       111.3420  -66.5140    0.2100 C.3   263  LYS263      0.1093
    130  NZ       110.4340  -65.8690   -0.7670 N.3   263  LYS263     -0.1314
    131  N        111.9170  -70.3560   -0.5010 N.3   290  CYS290     -0.1221
    132  CA       112.4500  -70.4700   -1.8450 C.3   290  CYS290      0.1808
    133  C        111.7010  -69.5490   -2.7910 C.2   290  CYS290      0.2601
    134  O        110.6900  -68.9420   -2.4220 O.2   290  CYS290     -0.2717
    135  CB       112.3290  -71.9170   -2.3320 C.3   290  CYS290      0.0970
    136  SG       110.6240  -72.5370   -2.4180 S.3   290  CYS290     -0.0800
    137  N        112.2120  -69.4450   -4.0110 N.am  291  MET291     -0.1965
    138  CA       111.5870  -68.6180   -5.0320 C.3   291  MET291      0.1736
    139  C        111.0670  -69.5420   -6.1280 C.2   291  MET291      0.2617
    140  O        110.0020  -70.1460   -5.9710 O.2   291  MET291     -0.2715
    141  CB       112.5980  -67.6090   -5.5840 C.3   291  MET291      0.0427
    142  CG       113.1860  -66.7240   -4.4950 C.3   291  MET291      0.0599
    143  SD       113.9910  -65.2340   -5.1080 S.3   291  MET291     -0.1393
    144  CE       113.7010  -64.1110   -3.7370 C.3   291  MET291      0.0692
    145  N        111.8120  -69.6690   -7.2210 N.am  292  GLY292     -0.1955
    146  CA       111.3820  -70.5420   -8.3010 C.3   292  GLY292      0.1869
    147  C        112.4070  -71.6080   -8.6660 C.2   292  GLY292      0.2309
    148  O        112.5380  -71.9770   -9.8330 O.2   292  GLY292     -0.2863
    149  N        109.8240  -74.0880    3.8370 N.3   315  ASP315     -0.1239
    150  CA       108.9460  -73.8460    2.6980 C.3   315  ASP315      0.1674
    151  C        109.8150  -74.0330    1.4570 C.2   315  ASP315      0.2266
    152  O        110.2520  -73.0740    0.8280 O.2   315  ASP315     -0.2867
    153  CB       108.3650  -72.4230    2.7590 C.3   315  ASP315      0.1410
    154  CG       107.4880  -72.1000    1.5630 C.2   315  ASP315      0.3668
    155  OD1      106.7550  -73.0040    1.1040 O.co2 315  ASP315     -0.2456
    156  OD2      107.5230  -70.9430    1.0890 O.co2 315  ASP315     -0.2456
    157  N        109.1160  -75.8810   -1.6060 N.3   317  ASP317     -0.1225
    158  CA       108.2190  -76.5950   -2.5070 C.3   317  ASP317      0.1805
    159  C        108.2020  -76.1200   -3.9600 C.2   317  ASP317      0.2598
    160  O        107.4160  -76.6260   -4.7600 O.2   317  ASP317     -0.2718
    161  CB       106.7970  -76.5250   -1.9380 C.3   317  ASP317      0.1424
    162  CG       106.2770  -75.0940   -1.8440 C.2   317  ASP317      0.3668
    163  OD1      107.0870  -74.1550   -2.0150 O.co2 317  ASP317     -0.2456
    164  OD2      105.0650  -74.9080   -1.5940 O.co2 317  ASP317     -0.2456
    165  N        109.0550  -75.1620   -4.3130 N.am  318  SER318     -0.1952
    166  CA       109.0670  -74.6630   -5.6870 C.3   318  SER318      0.1924
    167  C        109.2610  -75.7760   -6.7140 C.2   318  SER318      0.2314
    168  O        108.5760  -75.8170   -7.7400 O.2   318  SER318     -0.2863
    169  CB       110.1580  -73.6060   -5.8670 C.3   318  SER318      0.2116
    170  OG       111.4350  -74.1260   -5.5510 O.3   318  SER318     -0.2180
    171  N        106.1860  -77.6060   -7.6090 N.3   321  MET321     -0.1245
    172  CA       105.1930  -76.8790   -8.3980 C.3   321  MET321      0.1570
    173  C        105.5960  -76.7630   -9.8660 C.2   321  MET321      0.2261
    174  O        104.7930  -76.3620  -10.7070 O.2   321  MET321     -0.2867
    175  CB       105.0080  -75.4750   -7.8260 C.3   321  MET321      0.0387
    176  CG       104.6760  -75.4400   -6.3510 C.3   321  MET321      0.0595
    177  SD       104.7190  -73.7500   -5.7230 S.3   321  MET321     -0.1393
    178  CE       103.1320  -73.1330   -6.3860 C.3   321  MET321      0.0692
@<TRIPOS>BOND
     1     4     3    2
     2     1     2    1
     3     3     2    1
     4    40    39    1
     5    40    41    2
     6     2     5    1
     7     5     6    1
     8    39    38    1
     9    39    42    1
    10     8     6   ar
    11     8    10   ar
    12     6     7   ar
    13    42    43    1
    14    10    11   ar
    15    13    14    1
    16     7     9   ar
    17   174   173    2
    18    11     9   ar
    19    11    12    1
    20   173   172    1
    21   148   147    2
    22    34    33    1
    23    34    35    2
    24    14    15    1
    25    14    17    1
    26    16    15    2
    27    37    36    1
    28    33    36    1
    29    33    32    1
    30    17    18    1
    31    44    45    1
    32   147   146    1
    33   172   175    1
    34   172   171    1
    35   146   145    1
    36   175   176    1
    37    45    48    1
    38    45    46    1
    39   168   167    2
    40    18    20   ar
    41    18    19   ar
    42    48    49    1
    43    20    22   ar
    44   145   139   am
    45    19    21   ar
    46   167   166    1
    47    24    25    1
    48    27    26    2
    49    49    50    1
    50    46    47    2
    51   178   177    1
    52   176   177    1
    53    50    51    1
    54   139   140    2
    55   139   138    1
    56    22    23   ar
    57   169   166    1
    58   169   170    1
    59    51    52    2
    60    29    31    1
    61    29    28    1
    62   166   165    1
    63   141   138    1
    64   141   142    1
    65    26    25    1
    66    21    23   ar
    67    25    28    1
    68   143   142    1
    69   143   144    1
    70   138   137    1
    71    30    28    1
    72   160   159    2
    73    52    54    1
    74    52    53    1
    75   165   159   am
    76   137   133   am
    77   159   158    1
    78    58    57    2
    79   133   134    2
    80   133   132    1
    81   158   161    1
    82   158   157    1
    83   136   135    1
    84   135   132    1
    85   163   162   ar
    86   161   162    1
    87    57    56    1
    88   132   131    1
    89   162   164   ar
    90    76    75    1
    91    76    77    1
    92    61    59    1
    93    59    56    1
    94    59    60    1
    95    78    77    1
    96    78    79    1
    97    75    72    1
    98    94    93    2
    99    93    92    1
   100    93    95   am
   101    92    89    1
   102    91    90    2
   103    56    55    1
   104   121   119   ar
   105   130   129    1
   106   118   119    1
   107   118   117    1
   108   128   129    1
   109   128   127    1
   110    74    73    2
   111    72    73    1
   112    72    71    1
   113    90    89    1
   114   119   120   ar
   115    89    88    1
   116   126   127    1
   117   126   123    1
   118   124   125    2
   119   124   123    1
   120   117   114    1
   121   152   151    2
   122   156   154   ar
   123   155   154   ar
   124    65    64    2
   125   123   122    1
   126    87    85   ar
   127   112   110   ar
   128   114   115    1
   129   114   113    1
   130   151   150    1
   131    69    70    1
   132    69    68    1
   133    83    82    2
   134   154   153    1
   135   116   115    2
   136   111   110   ar
   137    85    86   ar
   138    85    84    1
   139   110   109    1
   140    67    68    1
   141    67    66    1
   142    64    63    1
   143   113   107   am
   144    84    81    1
   145    82    81    1
   146    66    63    1
   147   150   153    1
   148   150   149    1
   149   107   108    2
   150   107   106    1
   151    63    62    1
   152   109   106    1
   153    81    80    1
   154   104   102   ar
   155   106   105    1
   156   103   102   ar
   157   102   101    1
   158    99    98    2
   159   100   101    1
   160   100    97    1
   161    98    97    1
   162    97    96    1
