@<TRIPOS>MOLECULE
tmp/3desA00.pdb
 178 162 0 0 0
SMALL
GASTEIGER

@<TRIPOS>ATOM
      1  N         75.8580  -22.5690    1.7570 N.3    14  TYR14      -0.1241
      2  CA        75.7320  -24.0220    1.8600 C.3    14  TYR14       0.1605
      3  C         74.2850  -24.4400    1.6130 C.2    14  TYR14       0.2264
      4  O         73.3640  -23.7170    1.9830 O.2    14  TYR14      -0.2867
      5  CB        76.1560  -24.4940    3.2610 C.3    14  TYR14       0.0534
      6  CG        77.6520  -24.6300    3.4810 C.ar   14  TYR14      -0.0201
      7  CD1       78.3360  -25.7690    3.0620 C.ar   14  TYR14      -0.0009
      8  CD2       78.3830  -23.6220    4.1120 C.ar   14  TYR14      -0.0009
      9  CE1       79.7110  -25.9030    3.2640 C.ar   14  TYR14       0.0417
     10  CE2       79.7580  -23.7450    4.3180 C.ar   14  TYR14       0.0417
     11  CZ        80.4150  -24.8880    3.8890 C.ar   14  TYR14       0.1957
     12  OH        81.7740  -25.0140    4.0690 O.3    14  TYR14      -0.2866
     13  N         76.4100  -26.5780    7.7420 N.3    18  PHE18      -0.1241
     14  CA        77.3950  -27.6420    7.8690 C.3    18  PHE18       0.1605
     15  C         77.9170  -27.6880    9.3010 C.2    18  PHE18       0.2264
     16  O         78.6170  -26.7810    9.7490 O.2    18  PHE18      -0.2867
     17  CB        78.5370  -27.4070    6.8740 C.3    18  PHE18       0.0534
     18  CG        79.5060  -28.5480    6.7830 C.ar   18  PHE18      -0.0203
     19  CD1       79.0670  -29.8630    6.9030 C.ar   18  PHE18      -0.0042
     20  CD2       80.8600  -28.3110    6.5780 C.ar   18  PHE18      -0.0042
     21  CE1       79.9630  -30.9250    6.8230 C.ar   18  PHE18      -0.0003
     22  CE2       81.7660  -29.3700    6.4960 C.ar   18  PHE18      -0.0003
     23  CZ        81.3150  -30.6780    6.6200 C.ar   18  PHE18      -0.0000
     24  N         80.1730  -29.5130   12.2300 N.3    20  ILE20      -0.1245
     25  CA        81.2900  -30.3850   12.5990 C.3    20  ILE20       0.1561
     26  C         81.6450  -30.0380   14.0410 C.2    20  ILE20       0.2260
     27  O         81.1860  -29.0240   14.5710 O.2    20  ILE20      -0.2867
     28  CB        82.5550  -30.1550   11.7400 C.3    20  ILE20       0.0252
     29  CG1       83.1170  -28.7560   12.0020 C.3    20  ILE20       0.0019
     30  CG2       82.2340  -30.3750   10.2670 C.3    20  ILE20       0.0019
     31  CD1       84.4290  -28.4790   11.2960 C.3    20  ILE20       0.0001
     32  N         78.6730  -23.8040    9.9860 N.3    25  SER25      -0.1217
     33  CA        78.8500  -22.8210    8.9290 C.3    25  SER25       0.1889
     34  C         77.6440  -22.7980    8.0150 C.2    25  SER25       0.2288
     35  O         77.1030  -23.8430    7.6560 O.2    25  SER25      -0.2866
     36  CB        80.1020  -23.1300    8.1090 C.3    25  SER25       0.2089
     37  OG        81.2620  -23.0430    8.9120 O.3    25  SER25      -0.2183
     38  N         90.6710  -20.7180    6.9420 N.3    50  SER50      -0.1217
     39  CA        90.0490  -21.3450    8.0980 C.3    50  SER50       0.1889
     40  C         90.5840  -20.6720    9.3560 C.2    50  SER50       0.2288
     41  O         91.7880  -20.6400    9.5850 O.2    50  SER50      -0.2866
     42  CB        90.3630  -22.8460    8.1330 C.3    50  SER50       0.2089
     43  OG        89.8120  -23.4500    9.2960 O.3    50  SER50      -0.2183
     44  N         89.6120  -21.5660   12.5000 N.3    52  ARG52      -0.1245
     45  CA        89.7800  -22.6860   13.4340 C.3    52  ARG52       0.1563
     46  C         91.0530  -23.5020   13.1880 C.2    52  ARG52       0.2260
     47  O         91.7860  -23.8310   14.1210 O.2    52  ARG52      -0.2867
     48  CB        88.5600  -23.6160   13.3420 C.3    52  ARG52       0.0307
     49  CG        88.5860  -24.8370   14.2760 C.3    52  ARG52       0.0489
     50  CD        87.3530  -25.7270   14.0370 C.3    52  ARG52       0.2205
     51  NE        87.2960  -26.1840   12.6490 N.pl3  52  ARG52      -0.0865
     52  CZ        87.8170  -27.3250   12.2080 C.cat  52  ARG52       0.5346
     53  NH1       88.4280  -28.1540   13.0480 N.pl3  52  ARG52       0.1354
     54  NH2       87.7670  -27.6130   10.9150 N.pl3  52  ARG52       0.1354
     55  N         80.4740  -36.0430    2.5250 N.3   132  THR132     -0.1218
     56  CA        80.3120  -35.9570    3.9680 C.3   132  THR132      0.1862
     57  C         78.9140  -35.8410    4.5570 C.2   132  THR132      0.2287
     58  O         78.0420  -35.1690    4.0180 O.2   132  THR132     -0.2866
     59  CB        81.1330  -34.7820    4.5170 C.3   132  THR132      0.1770
     60  OG1       82.5000  -34.9140    4.0950 O.3   132  THR132     -0.2211
     61  CG2       81.0680  -34.7550    6.0440 C.3   132  THR132      0.0375
     62  N         81.9570  -40.2210    4.3490 N.3   157  LYS157     -0.1245
     63  CA        82.6680  -39.6120    5.4580 C.3   157  LYS157      0.1561
     64  C         81.6390  -39.1730    6.4920 C.2   157  LYS157      0.2260
     65  O         80.6910  -38.4530    6.1760 O.2   157  LYS157     -0.2867
     66  CB        83.4910  -38.4240    4.9570 C.3   157  LYS157      0.0271
     67  CG        84.2690  -37.7060    6.0420 C.3   157  LYS157      0.0035
     68  CD        85.3390  -36.7800    5.4570 C.3   157  LYS157      0.0206
     69  CE        85.8890  -35.8480    6.5320 C.3   157  LYS157      0.1093
     70  NZ        87.1810  -35.2330    6.1360 N.3   157  LYS157     -0.1314
     71  N         80.9130  -37.2950   10.1990 N.3   159  LYS159     -0.1245
     72  CA        81.4230  -36.4000   11.2380 C.3   159  LYS159      0.1561
     73  C         80.9120  -36.8360   12.6020 C.2   159  LYS159      0.2260
     74  O         79.7460  -37.2010   12.7500 O.2   159  LYS159     -0.2867
     75  CB        80.9840  -34.9550   10.9820 C.3   159  LYS159      0.0271
     76  CG        81.6130  -34.3220    9.7530 C.3   159  LYS159      0.0035
     77  CD        83.0990  -34.0840    9.9540 C.3   159  LYS159      0.0206
     78  CE        83.7150  -33.4660    8.7110 C.3   159  LYS159      0.1093
     79  NZ        85.1300  -33.0340    8.9360 N.3   159  LYS159     -0.1314
     80  N         85.4300  -38.7930   10.9790 N.3   186  ASP186     -0.1239
     81  CA        86.2260  -37.6170   11.3260 C.3   186  ASP186      0.1674
     82  C         85.6980  -36.9630   12.6030 C.2   186  ASP186      0.2266
     83  O         84.5760  -36.4470   12.6240 O.2   186  ASP186     -0.2867
     84  CB        86.1690  -36.6310   10.1620 C.3   186  ASP186      0.1410
     85  CG        87.0960  -35.4450   10.3430 C.2   186  ASP186      0.3668
     86  OD1       87.6230  -35.2340   11.4630 O.co2 186  ASP186     -0.2456
     87  OD2       87.2890  -34.7130    9.3510 O.co2 186  ASP186     -0.2456
     88  N         87.2910  -34.4020   14.1950 N.3   188  ASN188     -0.1240
     89  CA        87.7000  -33.0060   14.2630 C.3   188  ASN188      0.1653
     90  C         88.1440  -32.6230   15.6800 C.2   188  ASN188      0.2266
     91  O         87.6740  -31.6360   16.2510 O.2   188  ASN188     -0.2867
     92  CB        86.5620  -32.0820   13.7920 C.3   188  ASN188      0.1155
     93  CG        86.3980  -32.0700   12.2700 C.2   188  ASN188      0.2627
     94  OD1       85.3450  -32.4330   11.7440 O.2   188  ASN188     -0.2716
     95  ND2       87.4460  -31.6500   11.5590 N.am  188  ASN188     -0.0877
     96  N         89.9590  -39.9990   11.1500 N.3   214  GLU214     -0.1245
     97  CA        90.5670  -38.6610   11.1680 C.3   214  GLU214      0.1567
     98  C         90.6210  -37.8930   12.4830 C.2   214  GLU214      0.2260
     99  O         89.6360  -37.8100   13.2070 O.2   214  GLU214     -0.2867
    100  CB        89.8620  -37.7500   10.1620 C.3   214  GLU214      0.0388
    101  CG        90.3520  -37.8330    8.7480 C.3   214  GLU214      0.1160
    102  CD        89.6690  -36.8160    7.8540 C.2   214  GLU214      0.3649
    103  OE1       88.7210  -37.1940    7.1360 O.co2 214  GLU214     -0.2457
    104  OE2       90.0740  -35.6320    7.8820 O.co2 214  GLU214     -0.2457
    105  N         94.9890  -34.5020   10.7190 N.3   239  ASP239     -0.1225
    106  CA        94.4840  -33.4750    9.8110 C.3   239  ASP239      0.1805
    107  C         94.9790  -32.1450   10.3860 C.2   239  ASP239      0.2597
    108  O         95.9970  -31.6080    9.9410 O.2   239  ASP239     -0.2718
    109  CB        92.9530  -33.4860    9.7410 C.3   239  ASP239      0.1424
    110  CG        92.4030  -32.4790    8.7180 C.2   239  ASP239      0.3668
    111  OD1       93.1400  -31.5400    8.3360 O.co2 239  ASP239     -0.2456
    112  OD2       91.2280  -32.6190    8.3060 O.co2 239  ASP239     -0.2456
    113  N         94.2770  -31.6350   11.3930 N.am  240  GLU240     -0.1979
    114  CA        94.6620  -30.3810   12.0320 C.3   240  GLU240      0.1602
    115  C         96.1130  -30.4040   12.5280 C.2   240  GLU240      0.2287
    116  O         96.7880  -29.3740   12.5200 O.2   240  GLU240     -0.2864
    117  CB        93.7100  -30.0500   13.1940 C.3   240  GLU240      0.0415
    118  CG        92.3120  -29.5870   12.7460 C.3   240  GLU240      0.1163
    119  CD        91.3420  -30.7350   12.4840 C.2   240  GLU240      0.3649
    120  OE1       91.8050  -31.8760   12.2630 O.co2 240  GLU240     -0.2457
    121  OE2       90.1120  -30.4920   12.4900 O.co2 240  GLU240     -0.2457
    122  N         95.9480  -31.1260    2.8010 N.3   263  LYS263     -0.1245
    123  CA        95.0490  -30.1000    2.2930 C.3   263  LYS263      0.1561
    124  C         95.8890  -28.9540    1.7660 C.2   263  LYS263      0.2260
    125  O         96.7600  -28.4380    2.4650 O.2   263  LYS263     -0.2867
    126  CB        94.1040  -29.5860    3.3700 C.3   263  LYS263      0.0271
    127  CG        93.0240  -30.5660    3.7440 C.3   263  LYS263      0.0035
    128  CD        92.1080  -29.9980    4.8150 C.3   263  LYS263      0.0206
    129  CE        91.2430  -31.0930    5.3990 C.3   263  LYS263      0.1093
    130  NZ        90.2440  -30.5220    6.3260 N.3   263  LYS263     -0.1314
    131  N         89.7610  -31.1060    1.8600 N.3   290  CYS290     -0.1221
    132  CA        89.4440  -29.7380    1.4890 C.3   290  CYS290      0.1808
    133  C         88.8280  -28.9920    2.6630 C.2   290  CYS290      0.2601
    134  O         88.5560  -29.5840    3.7130 O.2   290  CYS290     -0.2717
    135  CB        88.4580  -29.7480    0.3220 C.3   290  CYS290      0.0970
    136  SG        86.8790  -30.5730    0.7020 S.3   290  CYS290     -0.0800
    137  N         88.6270  -27.6890    2.4790 N.am  291  MET291     -0.1965
    138  CA        88.0070  -26.8360    3.4920 C.3   291  MET291      0.1736
    139  C         86.6420  -26.4650    2.9200 C.2   291  MET291      0.2617
    140  O         85.7340  -27.2980    2.8680 O.2   291  MET291     -0.2715
    141  CB        88.8270  -25.5640    3.7120 C.3   291  MET291      0.0427
    142  CG        90.2760  -25.7950    4.1220 C.3   291  MET291      0.0599
    143  SD        90.4790  -26.2420    5.8440 S.3   291  MET291     -0.1393
    144  CE        92.0400  -25.4440    6.2140 C.3   291  MET291      0.0692
    145  N         86.5100  -25.2230    2.4630 N.am  292  GLY292     -0.1955
    146  CA        85.2510  -24.7720    1.8920 C.3   292  GLY292      0.1869
    147  C         85.3910  -24.2540    0.4720 C.2   292  GLY292      0.2309
    148  O         84.7460  -23.2780    0.0920 O.2   292  GLY292     -0.2863
    149  N         88.7880  -36.7190   -0.3250 N.3   315  ASP315     -0.1239
    150  CA        87.6670  -36.0460    0.3050 C.3   315  ASP315      0.1674
    151  C         87.6140  -34.6410   -0.3040 C.2   315  ASP315      0.2266
    152  O         88.0190  -33.6610    0.3210 O.2   315  ASP315     -0.2867
    153  CB        87.8590  -35.9710    1.8250 C.3   315  ASP315      0.1410
    154  CG        86.7080  -35.2530    2.5220 C.2   315  ASP315      0.3668
    155  OD1       85.5500  -35.4460    2.0980 O.co2 315  ASP315     -0.2456
    156  OD2       86.9590  -34.5060    3.4940 O.co2 315  ASP315     -0.2456
    157  N         84.7630  -32.7880   -1.5990 N.3   317  ASP317     -0.1225
    158  CA        83.3310  -32.6010   -1.7720 C.3   317  ASP317      0.1805
    159  C         82.7580  -31.2330   -1.3890 C.2   317  ASP317      0.2598
    160  O         81.5540  -31.0200   -1.5280 O.2   317  ASP317     -0.2718
    161  CB        82.6120  -33.6750   -0.9590 C.3   317  ASP317      0.1424
    162  CG        82.8270  -33.5080    0.5390 C.2   317  ASP317      0.3668
    163  OD1       83.7190  -32.7210    0.9320 O.co2 317  ASP317     -0.2456
    164  OD2       82.1080  -34.1660    1.3240 O.co2 317  ASP317     -0.2456
    165  N         83.5900  -30.3090   -0.9160 N.am  318  SER318     -0.1952
    166  CA        83.0620  -29.0120   -0.4980 C.3   318  SER318      0.1924
    167  C         82.2050  -28.3080   -1.5530 C.2   318  SER318      0.2314
    168  O         81.1670  -27.7270   -1.2230 O.2   318  SER318     -0.2863
    169  CB        84.1890  -28.0840   -0.0340 C.3   318  SER318      0.2116
    170  OG        85.1340  -27.8530   -1.0570 O.3   318  SER318     -0.2180
    171  N         78.6240  -29.2480   -1.7410 N.3   321  MET321     -0.1245
    172  CA        77.7890  -28.8150   -0.6260 C.3   321  MET321      0.1570
    173  C         77.4160  -27.3410   -0.7330 C.2   321  MET321      0.2261
    174  O         76.5910  -26.8500    0.0340 O.2   321  MET321     -0.2867
    175  CB        78.5180  -29.0460    0.6960 C.3   321  MET321      0.0387
    176  CG        79.1190  -30.4270    0.8400 C.3   321  MET321      0.0595
    177  SD        80.0360  -30.5910    2.3820 S.3   321  MET321     -0.1393
    178  CE        78.8350  -31.5200    3.3740 C.3   321  MET321      0.0692
@<TRIPOS>BOND
     1   158   157    1
     2   158   159    1
     3   158   161    1
     4   171   172    1
     5   167   168    2
     6   167   166    1
     7   160   159    2
     8   159   165   am
     9   170   169    1
    10   161   162    1
    11   165   166    1
    12   173   172    1
    13   173   174    2
    14   172   175    1
    15   166   169    1
    16   149   150    1
    17   151   150    1
    18   151   152    2
    19   148   147    2
    20   150   153    1
    21   135   136    1
    22   135   132    1
    23   147   146    1
    24   162   163   ar
    25   162   164   ar
    26   175   176    1
    27   176   177    1
    28   132   131    1
    29   132   133    1
    30     3     2    1
    31     3     4    2
    32     1     2    1
    33   124   123    1
    34   124   125    2
    35   153   154    1
    36     2     5    1
    37   146   145    1
    38   155   154   ar
    39   123   122    1
    40   123   126    1
    41   177   178    1
    42   145   139   am
    43   137   133   am
    44   137   138    1
    45   154   156   ar
    46    55    56    1
    47   133   134    2
    48   140   139    2
    49   139   138    1
    50     7     9   ar
    51     7     6   ar
    52     5     6    1
    53     9    11   ar
    54   126   127    1
    55     6     8   ar
    56   138   141    1
    57   141   142    1
    58   127   128    1
    59    11    12    1
    60    11    10   ar
    61    56    59    1
    62    56    57    1
    63    58    57    2
    64    60    59    1
    65     8    10   ar
    66   142   143    1
    67    62    63    1
    68    59    61    1
    69   128   129    1
    70    66    63    1
    71    66    67    1
    72   129   130    1
    73    68    67    1
    74    68    69    1
    75    63    64    1
    76   143   144    1
    77    70    69    1
    78    65    64    2
    79    22    20   ar
    80    22    23   ar
    81    20    18   ar
    82    23    21   ar
    83    18    17    1
    84    18    19   ar
    85    21    19   ar
    86    17    14    1
    87    38    39    1
    88   103   102   ar
    89    35    34    2
    90    13    14    1
    91   102   104   ar
    92   102   101    1
    93    14    15    1
    94    34    33    1
    95    39    42    1
    96    39    40    1
    97    36    37    1
    98    36    33    1
    99    42    43    1
   100   112   110   ar
   101   111   110   ar
   102    78    79    1
   103    78    77    1
   104   110   109    1
   105   101   100    1
   106    33    32    1
   107    15    16    2
   108    87    85   ar
   109    40    41    2
   110   109   106    1
   111    76    77    1
   112    76    75    1
   113   106   107    1
   114   106   105    1
   115   108   107    2
   116   100    97    1
   117    84    85    1
   118    84    81    1
   119    71    72    1
   120    30    28    1
   121    85    86   ar
   122   107   113   am
   123    54    52    1
   124    80    81    1
   125    75    72    1
   126    96    97    1
   127    97    98    1
   128    72    73    1
   129    31    29    1
   130    81    82    1
   131   113   114    1
   132    95    93   am
   133    28    29    1
   134    28    25    1
   135    94    93    2
   136   114   115    1
   137   114   117    1
   138    52    51    2
   139    52    53    1
   140    24    25    1
   141   120   119   ar
   142    93    92    1
   143    98    99    2
   144   119   121   ar
   145   119   118    1
   146    44    45    1
   147   116   115    2
   148    25    26    1
   149    73    74    2
   150    82    83    2
   151    51    50    1
   152   118   117    1
   153    46    45    1
   154    46    47    2
   155    48    45    1
   156    48    49    1
   157    92    89    1
   158    50    49    1
   159    26    27    2
   160    88    89    1
   161    89    90    1
   162    90    91    2
