@<TRIPOS>MOLECULE
tmp/3deuA00.pdb
 96 94 0 0 0
SMALL
GASTEIGER

@<TRIPOS>ATOM
      1  N         33.9070    3.7310   17.4630 N.3    13  VAL13      -0.1245
      2  CA        32.6890    3.8390   18.2130 C.3    13  VAL13       0.1561
      3  C         32.9530    4.4890   19.5660 C.2    13  VAL13       0.2260
      4  O         32.1030    5.2350   20.0450 O.2    13  VAL13      -0.2867
      5  CB        32.0110    2.4520   18.3880 C.3    13  VAL13       0.0252
      6  CG1       31.2240    2.4170   19.6300 C.3    13  VAL13       0.0019
      7  CG2       31.0860    2.1420   17.2020 C.3    13  VAL13       0.0019
      8  N         33.5380    8.2500   18.9530 N.3    16  TRP16      -0.1227
      9  CA        32.3490    8.9200   18.4870 C.3    16  TRP16       0.1737
     10  C         31.4490    9.1290   19.6820 C.2    16  TRP16       0.2595
     11  O         30.8090   10.1750   19.8620 O.2    16  TRP16      -0.2718
     12  CB        31.6920    8.0600   17.4170 C.3    16  TRP16       0.0564
     13  CG        30.4560    8.5270   16.7430 C.ar   16  TRP16       0.0003
     14  CD1       29.5520    9.4270   17.1990 C.ar   16  TRP16       0.0946
     15  CD2       29.9910    8.1190   15.4380 C.ar   16  TRP16       0.0152
     16  NE1       28.5520    9.5860   16.2810 N.ar   16  TRP16      -0.2442
     17  CE2       28.8070    8.8080   15.1820 C.ar   16  TRP16       0.0810
     18  CE3       30.4630    7.2360   14.4690 C.ar   16  TRP16       0.0012
     19  CZ2       28.0810    8.6270   14.0000 C.ar   16  TRP16       0.0191
     20  CZ3       29.7400    7.0430   13.3000 C.ar   16  TRP16       0.0001
     21  CH2       28.5620    7.7510   13.0700 C.ar   16  TRP16       0.0015
     22  N         31.3790    8.1140   20.5150 N.am   17  ARG17      -0.1980
     23  CA        30.6530    8.2710   21.7670 C.3    17  ARG17       0.1597
     24  C         31.2600    9.3690   22.6330 C.2    17  ARG17       0.2287
     25  O         30.5070   10.0590   23.3220 O.2    17  ARG17      -0.2864
     26  CB        30.6870    6.9760   22.5750 C.3    17  ARG17       0.0334
     27  CG        29.6120    6.7800   23.6140 C.3    17  ARG17       0.0492
     28  CD        29.0980    5.3590   23.5510 C.3    17  ARG17       0.2205
     29  NE        30.2100    4.4290   23.6580 N.pl3  17  ARG17      -0.0865
     30  CZ        30.2270    3.2000   23.1480 C.cat  17  ARG17       0.5346
     31  NH1       29.1880    2.7140   22.4750 N.pl3  17  ARG17       0.1354
     32  NH2       31.3120    2.4650   23.3290 N.pl3  17  ARG17       0.1354
     33  N         30.1940   12.7800   21.4880 N.3    20  ILE20      -0.1245
     34  CA        28.8550   13.0230   21.9690 C.3    20  ILE20       0.1561
     35  C         28.8200   13.2360   23.4880 C.2    20  ILE20       0.2260
     36  O         27.9960   14.0200   23.9550 O.2    20  ILE20      -0.2867
     37  CB        27.9230   11.9110   21.5280 C.3    20  ILE20       0.0252
     38  CG1       27.8410   11.8770   20.0080 C.3    20  ILE20       0.0019
     39  CG2       26.4800   12.0180   22.1260 C.3    20  ILE20       0.0019
     40  CD1       26.8090   10.8430   19.5700 C.3    20  ILE20       0.0001
     41  N         22.2680    8.4890   28.1210 N.3    34  TRP34      -0.1227
     42  CA        21.8410    9.0140   26.8030 C.3    34  TRP34       0.1737
     43  C         21.7790    7.8950   25.7930 C.2    34  TRP34       0.2595
     44  O         20.8630    7.8600   24.9750 O.2    34  TRP34      -0.2718
     45  CB        22.6910   10.1830   26.3730 C.3    34  TRP34       0.0564
     46  CG        24.1200   10.0020   25.9440 C.ar   34  TRP34       0.0003
     47  CD1       25.2190   10.4550   26.6050 C.ar   34  TRP34       0.0946
     48  CD2       24.5940    9.4450   24.7090 C.ar   34  TRP34       0.0152
     49  NE1       26.3490   10.1500   25.8890 N.ar   34  TRP34      -0.2442
     50  CE2       25.9930    9.5610   24.7100 C.ar   34  TRP34       0.0810
     51  CE3       23.9690    8.8600   23.5980 C.ar   34  TRP34       0.0012
     52  CZ2       26.7870    9.0990   23.6600 C.ar   34  TRP34       0.0191
     53  CZ3       24.7690    8.3840   22.5510 C.ar   34  TRP34       0.0001
     54  CH2       26.1520    8.5020   22.6010 C.ar   34  TRP34       0.0015
     55  N         22.7050    6.9390   25.9170 N.am   35  VAL35      -0.1980
     56  CA        22.7340    5.7880   25.0180 C.3    35  VAL35       0.1595
     57  C         21.4320    5.0780   25.1250 C.2    35  VAL35       0.2287
     58  O         20.8390    4.6860   24.1280 O.2    35  VAL35      -0.2864
     59  CB        23.9480    4.8680   25.2100 C.3    35  VAL35       0.0276
     60  CG1       23.6770    3.4880   24.6080 C.3    35  VAL35       0.0022
     61  CG2       25.2060    5.5810   24.6680 C.3    35  VAL35       0.0022
     62  N         18.4090    7.4550   23.8970 N.3    38  HIS38      -0.1226
     63  CA        18.4630    7.5060   22.4620 C.3    38  HIS38       0.1752
     64  C         17.8810    6.2200   21.8880 C.2    38  HIS38       0.2596
     65  O         17.0240    6.2480   21.0010 O.2    38  HIS38      -0.2718
     66  CB        19.9200    7.7010   22.0490 C.3    38  HIS38       0.0759
     67  CG        20.1150    7.7820   20.5680 C.ar   38  HIS38       0.0818
     68  ND1       19.3540    8.6030   19.7640 N.ar   38  HIS38      -0.2268
     69  CD2       20.9800    7.1470   19.7440 C.ar   38  HIS38       0.1154
     70  CE1       19.7470    8.4670   18.5110 C.ar   38  HIS38       0.1986
     71  NE2       20.7340    7.5910   18.4660 N.ar   38  HIS38      -0.2212
     72  N         18.3390    5.0760   22.4020 N.am   39  ASN39      -0.1974
     73  CA        17.8190    3.7990   21.9510 C.3    39  ASN39       0.1688
     74  C         16.3270    3.6670   22.1480 C.2    39  ASN39       0.2292
     75  O         15.6100    3.1820   21.2620 O.2    39  ASN39      -0.2864
     76  CB        18.5920    2.6180   22.5330 C.3    39  ASN39       0.1181
     77  CG        19.7730    2.2360   21.6720 C.2    39  ASN39       0.2629
     78  OD1       20.9050    2.5890   21.9740 O.2    39  ASN39      -0.2716
     79  ND2       19.5060    1.5350   20.5820 N.am   39  ASN39      -0.0877
     80  N         14.6900    5.7890   19.4090 N.3    42  GLN42      -0.1245
     81  CA        14.6220    5.3470   18.0250 C.3    42  GLN42       0.1566
     82  C         13.8240    4.0650   17.7940 C.2    42  GLN42       0.2260
     83  O         13.4760    3.7340   16.6660 O.2    42  GLN42      -0.2867
     84  CB        15.9630    5.4380   17.3100 C.3    42  GLN42       0.0367
     85  CG        16.9690    4.3820   17.6420 C.3    42  GLN42       0.0905
     86  CD        18.3600    4.9710   17.6320 C.2    42  GLN42       0.2608
     87  OE1       18.7450    5.6690   16.6920 O.2    42  GLN42      -0.2717
     88  NE2       19.1160    4.7090   18.6910 N.am   42  GLN42      -0.0878
     89  N         22.8800   14.7800   18.7020 N.3    99  ILE99      -0.1245
     90  CA        23.2700   13.5110   18.0700 C.3    99  ILE99       0.1561
     91  C         23.1630   13.5980   16.5260 C.2    99  ILE99       0.2260
     92  O         24.1370   13.3630   15.8260 O.2    99  ILE99      -0.2867
     93  CB        22.4260   12.3480   18.6470 C.3    99  ILE99       0.0252
     94  CG1       22.8410   12.0780   20.1010 C.3    99  ILE99       0.0019
     95  CG2       22.5940   11.0820   17.7790 C.3    99  ILE99       0.0019
     96  CD1       21.9510   11.0610   20.8050 C.3    99  ILE99       0.0001
@<TRIPOS>BOND
     1    21    20   ar
     2    21    19   ar
     3    20    18   ar
     4    19    17   ar
     5    18    15   ar
     6    17    15   ar
     7    17    16   ar
     8    15    13   ar
     9    92    91    2
    10    16    14   ar
    11    91    90    1
    12    83    82    2
    13    87    86    2
    14    13    14   ar
    15    13    12    1
    16     7     5    1
    17    84    85    1
    18    84    81    1
    19    12     9    1
    20     1     2    1
    21    86    85    1
    22    86    88   am
    23    95    93    1
    24    82    81    1
    25    81    80    1
    26    90    93    1
    27    90    89    1
    28     2     5    1
    29     2     3    1
    30     5     6    1
    31    71    70   ar
    32    71    69   ar
    33     9     8    1
    34     9    10    1
    35    70    68   ar
    36    93    94    1
    37     3     4    2
    38    40    38    1
    39    10    11    2
    40    10    22   am
    41    69    67   ar
    42    68    67   ar
    43    38    37    1
    44    94    96    1
    45    22    23    1
    46    67    66    1
    47    79    77   am
    48    65    64    2
    49    75    74    2
    50    33    34    1
    51    37    34    1
    52    37    39    1
    53    77    78    2
    54    77    76    1
    55    23    26    1
    56    23    24    1
    57    64    72   am
    58    64    63    1
    59    73    74    1
    60    73    72    1
    61    73    76    1
    62    34    35    1
    63    66    63    1
    64    63    62    1
    65    31    30    1
    66    53    54   ar
    67    53    51   ar
    68    26    27    1
    69    54    52   ar
    70    24    25    2
    71    30    32    1
    72    30    29    2
    73    35    36    2
    74    28    27    1
    75    28    29    1
    76    51    48   ar
    77    52    50   ar
    78    58    57    2
    79    60    59    1
    80    61    59    1
    81    48    50   ar
    82    48    46   ar
    83    50    49   ar
    84    44    43    2
    85    56    57    1
    86    56    59    1
    87    56    55    1
    88    43    55   am
    89    43    42    1
    90    49    47   ar
    91    46    45    1
    92    46    47   ar
    93    45    42    1
    94    42    41    1
