@<TRIPOS>MOLECULE
tmp/3deyA00.pdb
 171 164 0 0 0
SMALL
GASTEIGER

@<TRIPOS>ATOM
      1  N          7.3730   -2.5280  -13.1880 N.3    96  LEU96      -0.1245
      2  CA         7.1570   -1.5470  -14.2290 C.3    96  LEU96       0.1561
      3  C          6.3600   -2.2170  -15.3480 C.2    96  LEU96       0.2260
      4  O          6.7220   -3.3160  -15.7770 O.2    96  LEU96      -0.2867
      5  CB         8.5120   -1.0650  -14.7590 C.3    96  LEU96       0.0270
      6  CG         8.6860    0.2440  -15.5550 C.3    96  LEU96       0.0019
      7  CD1        8.1430    1.4670  -14.8710 C.3    96  LEU96       0.0001
      8  CD2       10.2010    0.4560  -15.8510 C.3    96  LEU96       0.0001
      9  N         10.5550    6.9930   -1.7430 N.3   142  SER142     -0.1202
     10  CA        10.6960    7.2770   -3.1540 C.3   142  SER142      0.2020
     11  C          9.8450    8.4980   -3.5170 C.2   142  SER142      0.2618
     12  O          8.7730    8.7190   -2.9490 O.2   142  SER142     -0.2717
     13  CB        10.1310    6.0840   -3.9440 C.3   142  SER142      0.2103
     14  OG        10.0520    6.3720   -5.3340 O.3   142  SER142     -0.2182
     15  N         10.2700    9.2460   -4.5320 N.am  143  VAL143     -0.1979
     16  CA         9.3510   10.2020   -5.1620 C.3   143  VAL143      0.1595
     17  C          8.0250    9.5540   -5.5800 C.2   143  VAL143      0.2287
     18  O          7.0010   10.1890   -5.4880 O.2   143  VAL143     -0.2864
     19  CB         9.9920   10.9240   -6.4110 C.3   143  VAL143      0.0276
     20  CG1       10.4030    9.9270   -7.4620 C.3   143  VAL143      0.0022
     21  CG2        9.0150   12.0230   -7.0130 C.3   143  VAL143      0.0022
     22  N          3.9120   10.8810   -5.2350 N.3   147  MET147     -0.1245
     23  CA         3.0820   11.2220   -6.3960 C.3   147  MET147      0.1570
     24  C          3.0380   10.0240   -7.3140 C.2   147  MET147      0.2261
     25  O          4.0440    9.3000   -7.4600 O.2   147  MET147     -0.2867
     26  CB         3.6850   12.4990   -7.0980 C.3   147  MET147      0.0387
     27  CG         5.0540   12.2260   -7.6640 C.3   147  MET147      0.0595
     28  SD         5.9040   13.7490   -8.2400 S.3   147  MET147     -0.1393
     29  CE         6.2140   14.5210   -6.7060 C.3   147  MET147      0.0692
     30  N          3.0830    7.7220  -10.6180 N.3   149  LEU149     -0.1231
     31  CA         3.8090    7.6940  -11.8990 C.3   149  LEU149      0.1678
     32  C          3.2170    6.6140  -12.8210 C.2   149  LEU149      0.2434
     33  O          2.9830    5.4510  -12.4140 O.2   149  LEU149     -0.2733
     34  CB         5.2830    7.4040  -11.6600 C.3   149  LEU149      0.0284
     35  CG         5.9610    8.1250  -10.4720 C.3   149  LEU149      0.0019
     36  CD1        7.2960    7.5040  -10.0320 C.3   149  LEU149      0.0001
     37  CD2        6.0920    9.5760  -10.8120 C.3   149  LEU149      0.0001
     38  N          2.9560    6.9570  -14.0990 N.am  150  PRO150     -0.2729
     39  CA         2.2590    6.0610  -14.9740 C.3   150  PRO150      0.1401
     40  C          3.1830    4.8870  -15.1920 C.2   150  PRO150      0.2269
     41  O          4.4090    5.0520  -15.1130 O.2   150  PRO150     -0.2865
     42  CB         2.0670    6.8820  -16.2750 C.3   150  PRO150      0.0296
     43  CG         3.1290    7.8670  -16.2570 C.3   150  PRO150      0.0237
     44  CD         3.3180    8.2190  -14.7490 C.3   150  PRO150      0.0939
     45  N          3.8640    2.7350  -13.1880 N.3   152  ASN152     -0.1240
     46  CA         4.4650    2.3010  -11.8970 C.3   152  ASN152      0.1653
     47  C          3.3470    2.1080  -10.8680 C.2   152  ASN152      0.2266
     48  O          3.5940    2.2710   -9.6580 O.2   152  ASN152     -0.2867
     49  CB         5.4300    3.3710  -11.3870 C.3   152  ASN152      0.1155
     50  CG         6.7200    3.4180  -12.1560 C.2   152  ASN152      0.2627
     51  OD1        7.7340    2.8650  -11.7120 O.2   152  ASN152     -0.2716
     52  ND2        6.7150    4.0900  -13.3300 N.am  152  ASN152     -0.0877
     53  N          4.1340   -0.2730   -7.9660 N.3   155  TYR155     -0.1241
     54  CA         5.3140    0.2390   -7.2420 C.3   155  TYR155      0.1605
     55  C          4.9140    1.4440   -6.3860 C.2   155  TYR155      0.2264
     56  O          5.2060    1.5370   -5.1720 O.2   155  TYR155     -0.2867
     57  CB         6.3960    0.7320   -8.2300 C.3   155  TYR155      0.0534
     58  CG         7.5990    1.3340   -7.5690 C.ar  155  TYR155     -0.0201
     59  CD1        8.4800    0.5400   -6.8250 C.ar  155  TYR155     -0.0009
     60  CD2        7.8180    2.7030   -7.6140 C.ar  155  TYR155     -0.0009
     61  CE1        9.5620    1.1030   -6.1890 C.ar  155  TYR155      0.0417
     62  CE2        8.8730    3.2700   -7.0090 C.ar  155  TYR155      0.0417
     63  CZ         9.7560    2.4830   -6.2990 C.ar  155  TYR155      0.1957
     64  OH        10.8270    2.9950   -5.6520 O.3   155  TYR155     -0.2866
     65  N         14.9360   10.4630   -5.1650 N.3   186  GLY186     -0.1210
     66  CA        14.5950   10.4900   -6.5920 C.3   186  GLY186      0.1940
     67  C         15.4090    9.4010   -7.2590 C.2   186  GLY186      0.2454
     68  O         15.8610    8.4800   -6.5760 O.2   186  GLY186     -0.2732
     69  N         15.6590    9.5030   -8.5920 N.am  187  PRO187     -0.2717
     70  CA        16.4630    8.4580   -9.2460 C.3   187  PRO187      0.1535
     71  C         17.8840    8.4030   -8.6720 C.2   187  PRO187      0.2598
     72  O         18.4440    9.4580   -8.3200 O.2   187  PRO187     -0.2715
     73  CB        16.4830    8.8890  -10.7210 C.3   187  PRO187      0.0310
     74  CG        16.1850   10.3560  -10.7080 C.3   187  PRO187      0.0237
     75  CD        15.2080   10.5470   -9.5410 C.3   187  PRO187      0.0939
     76  N         18.4300    7.1940   -8.5900 N.am  188  VAL188     -0.1978
     77  CA        19.7500    6.9220   -8.0240 C.3   188  VAL188      0.1596
     78  C         20.5590    6.0280   -8.9550 C.2   188  VAL188      0.2287
     79  O         20.0800    4.9670   -9.3700 O.2   188  VAL188     -0.2864
     80  CB        19.6250    6.2590   -6.6020 C.3   188  VAL188      0.0276
     81  CG1       20.9940    5.9180   -5.9990 C.3   188  VAL188      0.0022
     82  CG2       18.7980    7.1430   -5.6410 C.3   188  VAL188      0.0022
     83  N          6.7420    6.5690  -22.0570 N.3   211  TYR211     -0.1241
     84  CA         7.0900    6.7080  -20.6190 C.3   211  TYR211      0.1605
     85  C          8.5640    6.3020  -20.4070 C.2   211  TYR211      0.2264
     86  O          9.3510    7.0530  -19.7960 O.2   211  TYR211     -0.2867
     87  CB         6.1120    5.9240  -19.7090 C.3   211  TYR211      0.0534
     88  CG         6.7360    5.8120  -18.3360 C.ar  211  TYR211     -0.0201
     89  CD1        6.6640    6.8630  -17.4280 C.ar  211  TYR211     -0.0009
     90  CD2        7.4980    4.7030  -18.0170 C.ar  211  TYR211     -0.0009
     91  CE1        7.3070    6.7700  -16.1850 C.ar  211  TYR211      0.0417
     92  CE2        8.1560    4.6170  -16.7990 C.ar  211  TYR211      0.0417
     93  CZ         8.0390    5.6540  -15.8960 C.ar  211  TYR211      0.1957
     94  OH         8.7160    5.5450  -14.6920 O.3   211  TYR211     -0.2866
     95  N         11.0110    8.9660  -21.6540 N.3   214  HIS214     -0.1226
     96  CA        11.0430   10.1160  -20.7440 C.3   214  HIS214      0.1752
     97  C         11.7800    9.7700  -19.4580 C.2   214  HIS214      0.2596
     98  O         12.5800   10.5410  -18.9750 O.2   214  HIS214     -0.2718
     99  CB         9.6320   10.5210  -20.3950 C.3   214  HIS214      0.0759
    100  CG         9.5570   11.5210  -19.3010 C.ar  214  HIS214      0.0818
    101  ND1        9.1990   11.1880  -18.0110 N.ar  214  HIS214     -0.2268
    102  CD2        9.8190   12.8470  -19.2930 C.ar  214  HIS214      0.1154
    103  CE1        9.2140   12.2730  -17.2600 C.ar  214  HIS214      0.1986
    104  NE2        9.5910   13.2900  -18.0130 N.ar  214  HIS214     -0.2212
    105  N         11.4850    8.5990  -18.9140 N.am  215  SER215     -0.1952
    106  CA        12.1430    8.0820  -17.7050 C.3   215  SER215      0.1924
    107  C         13.6530    8.0200  -17.8760 C.2   215  SER215      0.2314
    108  O         14.4150    8.4000  -16.9860 O.2   215  SER215     -0.2863
    109  CB        11.5920    6.6900  -17.3910 C.3   215  SER215      0.2116
    110  OG        12.1380    6.2260  -16.1710 O.3   215  SER215     -0.2180
    111  N         15.0530   11.6130  -17.7700 N.3   218  VAL218     -0.1231
    112  CA        15.0450   12.0660  -16.3590 C.3   218  VAL218      0.1692
    113  C         16.2230   11.4080  -15.5960 C.2   218  VAL218      0.2592
    114  O         16.9360   12.0600  -14.8410 O.2   218  VAL218     -0.2718
    115  CB        13.6890   11.6980  -15.6940 C.3   218  VAL218      0.0266
    116  CG1       13.7500   11.8440  -14.1380 C.3   218  VAL218      0.0020
    117  CG2       12.5650   12.5550  -16.2800 C.3   218  VAL218      0.0020
    118  N         16.4590   10.1270  -15.8460 N.am  219  PHE219     -0.1976
    119  CA        17.4960    9.4240  -15.1440 C.3   219  PHE219      0.1639
    120  C         18.8600    9.9090  -15.5520 C.2   219  PHE219      0.2290
    121  O         19.7570   10.0180  -14.7240 O.2   219  PHE219     -0.2864
    122  CB        17.3830    7.9310  -15.3950 C.3   219  PHE219      0.0560
    123  CG        18.3320    7.1120  -14.5780 C.ar  219  PHE219     -0.0200
    124  CD1       17.9560    6.6210  -13.3280 C.ar  219  PHE219     -0.0042
    125  CD2       19.6190    6.8430  -15.0450 C.ar  219  PHE219     -0.0042
    126  CE1       18.8570    5.8740  -12.5710 C.ar  219  PHE219     -0.0003
    127  CE2       20.5230    6.0980  -14.2810 C.ar  219  PHE219     -0.0003
    128  CZ        20.1360    5.6200  -13.0550 C.ar  219  PHE219     -0.0000
    129  N         12.1050   17.3760   -7.4660 N.3   252  PHE252     -0.1241
    130  CA        10.7430   17.0080   -7.7300 C.3   252  PHE252      0.1605
    131  C          9.7970   17.7910   -6.8520 C.2   252  PHE252      0.2264
    132  O          8.5860   17.5820   -6.9250 O.2   252  PHE252     -0.2867
    133  CB        10.5490   15.4920   -7.5430 C.3   252  PHE252      0.0534
    134  CG        11.0190   14.9760   -6.2080 C.ar  252  PHE252     -0.0203
    135  CD1       10.3380   15.3130   -5.0200 C.ar  252  PHE252     -0.0042
    136  CD2       12.1490   14.1300   -6.1280 C.ar  252  PHE252     -0.0042
    137  CE1       10.7870   14.8300   -3.7690 C.ar  252  PHE252     -0.0003
    138  CE2       12.6020   13.6150   -4.8700 C.ar  252  PHE252     -0.0003
    139  CZ        11.9290   13.9700   -3.6950 C.ar  252  PHE252     -0.0000
    140  N          6.8720   19.8320   -8.6580 N.3   255  LEU255     -0.1245
    141  CA         5.8120   18.8910   -9.0330 C.3   255  LEU255      0.1561
    142  C          4.9980   18.4550   -7.8020 C.2   255  LEU255      0.2260
    143  O          3.7550   18.4330   -7.8200 O.2   255  LEU255     -0.2867
    144  CB         6.4440   17.6970   -9.7170 C.3   255  LEU255      0.0270
    145  CG         5.9340   17.1340  -11.0330 C.3   255  LEU255      0.0019
    146  CD1        4.6420   17.7960  -11.6020 C.3   255  LEU255      0.0001
    147  CD2        7.0900   17.2000  -12.0130 C.3   255  LEU255      0.0001
    148  N          1.5290   16.0390  -14.8320 N.3   272  MET272     -0.1245
    149  CA         2.3170   14.8230  -15.0450 C.3   272  MET272      0.1570
    150  C          2.0400   14.2120  -16.4380 C.2   272  MET272      0.2261
    151  O          2.9460   13.6710  -17.0750 O.2   272  MET272     -0.2867
    152  CB         2.0810   13.8000  -13.9120 C.3   272  MET272      0.0387
    153  CG         2.9640   12.5090  -13.9620 C.3   272  MET272      0.0595
    154  SD         4.7570   12.7640  -14.0780 S.3   272  MET272     -0.1393
    155  CE         5.0200   14.0800  -12.9170 C.3   272  MET272      0.0692
    156  N          4.0780   16.3230  -18.6910 N.3   275  GLU275     -0.1231
    157  CA         5.5030   16.0630  -18.4450 C.3   275  GLU275      0.1699
    158  C          5.9840   14.7780  -19.1170 C.2   275  GLU275      0.2592
    159  O          7.0570   14.7690  -19.7120 O.2   275  GLU275     -0.2718
    160  CB         5.8200   15.9760  -16.9580 C.3   275  GLU275      0.0402
    161  CG         6.0480   17.2930  -16.2870 C.3   275  GLU275      0.1161
    162  CD         7.5150   17.5690  -16.0470 C.2   275  GLU275      0.3649
    163  OE1        8.3210   17.5000  -17.0150 O.co2 275  GLU275     -0.2457
    164  OE2        7.8530   17.8470  -14.8730 O.co2 275  GLU275     -0.2457
    165  N          5.1970   13.7000  -19.0350 N.am  276  VAL276     -0.1980
    166  CA         5.6030   12.3820  -19.5810 C.3   276  VAL276      0.1595
    167  C          5.2740   12.2090  -21.0650 C.2   276  VAL276      0.2287
    168  O          6.0700   11.6340  -21.8220 O.2   276  VAL276     -0.2864
    169  CB         4.9540   11.1950  -18.7820 C.3   276  VAL276      0.0276
    170  CG1        5.3020    9.8410  -19.3950 C.3   276  VAL276      0.0022
    171  CG2        5.3990   11.2340  -17.3560 C.3   276  VAL276      0.0022
@<TRIPOS>BOND
     1    83    84    1
     2   168   167    2
     3    95    96    1
     4   167   166    1
     5    96    99    1
     6    96    97    1
     7    84    85    1
     8    84    87    1
     9    85    86    2
    10    99   100    1
    11   159   158    2
    12    87    88    1
    13   166   165    1
    14   166   169    1
    15    97    98    2
    16    97   105   am
    17   170   169    1
    18   100   102   ar
    19   100   101   ar
    20   102   104   ar
    21   158   165   am
    22   158   157    1
    23   105   106    1
    24   169   171    1
    25   156   157    1
    26   157   160    1
    27    88    90   ar
    28    88    89   ar
    29    90    92   ar
    30   104   103   ar
    31   101   103   ar
    32   107   106    1
    33   107   108    2
    34   111   112    1
    35   106   109    1
    36    89    91   ar
    37   109   110    1
    38   151   150    2
    39   163   162   ar
    40   160   161    1
    41    92    93   ar
    42   150   149    1
    43   112   115    1
    44   112   113    1
    45   161   162    1
    46   117   115    1
    47    42    43    1
    48    42    39    1
    49    43    44    1
    50    91    93   ar
    51   162   164   ar
    52    93    94    1
    53     8     6    1
    54   118   113   am
    55   118   119    1
    56     4     3    2
    57   115   116    1
    58   113   114    2
    59     6     7    1
    60     6     5    1
    61   120   119    1
    62   120   121    2
    63   122   119    1
    64   122   123    1
    65     3     2    1
    66    40    41    2
    67    40    39    1
    68   125   123   ar
    69   125   127   ar
    70   149   148    1
    71   149   152    1
    72    39    38    1
    73     5     2    1
    74    44    38    1
    75   123   124   ar
    76   127   128   ar
    77     2     1    1
    78    38    32   am
    79   154   153    1
    80   154   155    1
    81   153   152    1
    82    52    50   am
    83   124   126   ar
    84    45    46    1
    85   128   126   ar
    86    32    33    2
    87    32    31    1
    88    50    51    2
    89    50    49    1
    90   147   145    1
    91    31    34    1
    92    31    30    1
    93    46    49    1
    94    46    47    1
    95    34    35    1
    96   146   145    1
    97   145   144    1
    98    47    48    2
    99    37    35    1
   100    73    74    1
   101    73    70    1
   102    74    75    1
   103    35    36    1
   104   144   141    1
   105    75    69    1
   106    79    78    2
   107    70    71    1
   108    70    69    1
   109   141   140    1
   110   141   142    1
   111    78    77    1
   112    71    76   am
   113    71    72    2
   114    69    67   am
   115    76    77    1
   116    28    27    1
   117    28    29    1
   118    57    58    1
   119    57    54    1
   120    77    80    1
   121    53    54    1
   122   143   142    2
   123   130   133    1
   124   130   129    1
   125   130   131    1
   126    27    26    1
   127    60    58   ar
   128    60    62   ar
   129    58    59   ar
   130   133   134    1
   131    20    19    1
   132    25    24    2
   133    24    23    1
   134    67    66    1
   135    67    68    2
   136    54    55    1
   137    26    23    1
   138    21    19    1
   139    62    63   ar
   140   132   131    2
   141    59    61   ar
   142    80    81    1
   143    80    82    1
   144    66    65    1
   145    19    16    1
   146    23    22    1
   147    55    56    2
   148    63    61   ar
   149    63    64    1
   150   134   136   ar
   151   134   135   ar
   152   136   138   ar
   153    17    18    2
   154    17    16    1
   155    14    13    1
   156    16    15    1
   157   135   137   ar
   158   138   139   ar
   159    15    11   am
   160    13    10    1
   161   137   139   ar
   162    11    10    1
   163    11    12    2
   164    10     9    1
