@<TRIPOS>MOLECULE
tmp/3df9A00.pdb
 151 143 0 0 0
SMALL
GASTEIGER

@<TRIPOS>ATOM
      1  N         64.8580   73.5860   24.7460 N.3    10  ALA10      -0.1231
      2  CA        63.9910   72.8360   25.6900 C.3    10  ALA10       0.1694
      3  C         64.1780   71.3170   25.6450 C.2    10  ALA10       0.2591
      4  O         64.3960   70.6770   26.6770 O.2    10  ALA10      -0.2718
      5  CB        62.5240   73.1760   25.4460 C.3    10  ALA10       0.0304
      6  N         64.0790   70.7570   24.4440 N.am   11  MET11      -0.1979
      7  CA        64.1080   69.2980   24.2370 C.3    11  MET11       0.1605
      8  C         65.4770   68.7900   23.8070 C.2    11  MET11       0.2287
      9  O         66.2370   69.5030   23.1400 O.2    11  MET11      -0.2864
     10  CB        63.1190   68.8920   23.1320 C.3    11  MET11       0.0413
     11  CG        61.6930   69.4260   23.2550 C.3    11  MET11       0.0598
     12  SD        60.7790   69.2030   21.7130 S.3    11  MET11      -0.1393
     13  CE        60.4730   67.4410   21.7340 C.3    11  MET11       0.0692
     14  N         66.2520   69.1360   20.2430 N.3    14  GLU14      -0.1245
     15  CA        66.5990   70.5260   19.9040 C.3    14  GLU14       0.1567
     16  C         68.0450   70.9380   20.2800 C.2    14  GLU14       0.2260
     17  O         68.5880   71.8920   19.6940 O.2    14  GLU14      -0.2867
     18  CB        65.5740   71.5030   20.4890 C.3    14  GLU14       0.0388
     19  CG        64.1480   71.4040   19.8810 C.3    14  GLU14       0.1160
     20  CD        63.1290   72.2710   20.6370 C.2    14  GLU14       0.3649
     21  OE1       62.2320   72.8620   20.0100 O.co2  14  GLU14      -0.2457
     22  OE2       63.2370   72.3790   21.8640 O.co2  14  GLU14      -0.2457
     23  N         60.4970   71.7500   29.0520 N.3    52  ILE52      -0.1245
     24  CA        59.4070   72.3670   28.3110 C.3    52  ILE52       0.1561
     25  C         58.5820   73.2610   29.2060 C.2    52  ILE52       0.2260
     26  O         58.2500   72.8760   30.3400 O.2    52  ILE52      -0.2867
     27  CB        58.4000   71.2930   27.7360 C.3    52  ILE52       0.0252
     28  CG1       59.1030   70.2080   26.8980 C.3    52  ILE52       0.0019
     29  CG2       57.2510   71.9520   26.9630 C.3    52  ILE52       0.0019
     30  CD1       59.9410   70.7150   25.7950 C.3    52  ILE52       0.0001
     31  N         62.4640   74.6500   18.0060 N.3    78  SER78      -0.1202
     32  CA        61.3390   74.7190   17.0680 C.3    78  SER78       0.2020
     33  C         60.3300   75.8030   17.4450 C.2    78  SER78       0.2619
     34  O         60.3880   76.3620   18.5400 O.2    78  SER78      -0.2717
     35  CB        60.6440   73.3590   16.9620 C.3    78  SER78       0.2103
     36  OG        60.0680   72.9680   18.2000 O.3    78  SER78      -0.2182
     37  N         59.4060   76.0940   16.5300 N.am   79  ALA79      -0.1965
     38  CA        58.2950   77.0150   16.7900 C.3    79  ALA79       0.1728
     39  C         57.1490   76.7350   15.8360 C.2    79  ALA79       0.2616
     40  O         57.3520   76.1360   14.7820 O.2    79  ALA79      -0.2715
     41  CB        58.7430   78.4840   16.6570 C.3    79  ALA79       0.0334
     42  N         55.9500   77.1750   16.2110 N.am   80  GLY80      -0.1955
     43  CA        54.7960   77.1530   15.3040 C.3    80  GLY80       0.1869
     44  C         54.7380   78.4520   14.5190 C.2    80  GLY80       0.2309
     45  O         54.7710   79.5340   15.1090 O.2    80  GLY80      -0.2863
     46  N         50.8770   76.2270   26.3770 N.3   152  ALA152     -0.1231
     47  CA        50.0290   75.3420   25.5570 C.3   152  ALA152      0.1694
     48  C         50.6710   75.0790   24.2060 C.2   152  ALA152      0.2592
     49  O         51.2500   75.9780   23.6180 O.2   152  ALA152     -0.2718
     50  CB        48.6410   75.9380   25.3630 C.3   152  ALA152      0.0304
     51  N         50.5540   73.8420   23.7270 N.am  153  PHE153     -0.1962
     52  CA        50.8660   73.5210   22.3430 C.3   153  PHE153      0.1771
     53  C         49.6890   73.9510   21.4670 C.2   153  PHE153      0.2619
     54  O         48.5540   73.5110   21.6750 O.2   153  PHE153     -0.2715
     55  CB        51.1210   72.0250   22.1700 C.3   153  PHE153      0.0574
     56  CG        51.5710   71.6520   20.7720 C.ar  153  PHE153     -0.0200
     57  CD1       50.6500   71.1490   19.8340 C.ar  153  PHE153     -0.0042
     58  CD2       52.9090   71.8220   20.3900 C.ar  153  PHE153     -0.0042
     59  CE1       51.0670   70.8140   18.5350 C.ar  153  PHE153     -0.0003
     60  CE2       53.3300   71.4830   19.1030 C.ar  153  PHE153     -0.0003
     61  CZ        52.4040   70.9870   18.1650 C.ar  153  PHE153     -0.0000
     62  N         49.9560   74.8120   20.4890 N.am  154  ILE154     -0.1977
     63  CA        48.8750   75.4250   19.7160 C.3   154  ILE154      0.1596
     64  C         48.5010   74.5350   18.5170 C.2   154  ILE154      0.2287
     65  O         49.3760   74.0750   17.7660 O.2   154  ILE154     -0.2864
     66  CB        49.2050   76.8830   19.3010 C.3   154  ILE154      0.0276
     67  CG1       49.6100   77.7270   20.5200 C.3   154  ILE154      0.0022
     68  CG2       48.0560   77.5180   18.5590 C.3   154  ILE154      0.0022
     69  CD1       48.6240   77.7090   21.6960 C.3   154  ILE154      0.0001
     70  N         54.9170   81.1030   17.5030 N.3   173  VAL173     -0.1231
     71  CA        54.4730   80.8110   18.8500 C.3   173  VAL173      0.1692
     72  C         55.2230   79.5960   19.3550 C.2   173  VAL173      0.2592
     73  O         55.4360   78.6270   18.6200 O.2   173  VAL173     -0.2718
     74  CB        52.9080   80.5980   18.9370 C.3   173  VAL173      0.0266
     75  CG1       52.4100   79.4350   17.9930 C.3   173  VAL173      0.0020
     76  CG2       52.4640   80.3780   20.3870 C.3   173  VAL173      0.0020
     77  N         55.5970   79.6370   20.6270 N.am  174  GLU174     -0.1966
     78  CA        56.2710   78.5230   21.2680 C.3   174  GLU174      0.1733
     79  C         56.0460   78.6130   22.7760 C.2   174  GLU174      0.2616
     80  O         55.0550   79.1930   23.1870 O.2   174  GLU174     -0.2715
     81  CB        57.7500   78.4380   20.8500 C.3   174  GLU174      0.0429
     82  CG        58.4610   79.7820   20.8120 C.3   174  GLU174      0.1163
     83  CD        58.7110   80.2920   22.1910 C.2   174  GLU174      0.3649
     84  OE1       59.5540   79.6960   22.8960 O.co2 174  GLU174     -0.2457
     85  OE2       58.0390   81.2620   22.5670 O.co2 174  GLU174     -0.2457
     86  N         56.9210   78.0270   23.5930 N.am  175  MET175     -0.1963
     87  CA        56.6090   77.8380   25.0200 C.3   175  MET175      0.1736
     88  C         57.6900   78.2360   26.0380 C.2   175  MET175      0.2616
     89  O         57.5030   78.0280   27.2410 O.2   175  MET175     -0.2715
     90  CB        56.2070   76.3690   25.2410 C.3   175  MET175      0.0427
     91  CG        55.0330   75.9180   24.3430 C.3   175  MET175      0.0599
     92  SD        54.6270   74.1870   24.5330 S.3   175  MET175     -0.1393
     93  CE        54.1950   74.1110   26.2640 C.3   175  MET175      0.0692
     94  N         58.8100   78.8060   25.5700 N.am  176  GLU176     -0.1977
     95  CA        59.9420   79.1180   26.4770 C.3   176  GLU176      0.1602
     96  C         60.5800   80.4940   26.3010 C.2   176  GLU176      0.2287
     97  O         61.1580   81.0180   27.2590 O.2   176  GLU176     -0.2864
     98  CB        61.0610   78.0680   26.3940 C.3   176  GLU176      0.0415
     99  CG        60.6880   76.6120   26.8180 C.3   176  GLU176      0.1163
    100  CD        60.1260   75.8030   25.6480 C.2   176  GLU176      0.3649
    101  OE1       60.5930   76.0380   24.5040 O.co2 176  GLU176     -0.2457
    102  OE2       59.2380   74.9390   25.8660 O.co2 176  GLU176     -0.2457
    103  N         64.8080   80.4770   16.1580 N.3   195  ARG195     -0.1245
    104  CA        64.1500   79.1750   16.0320 C.3   195  ARG195      0.1563
    105  C         63.7790   78.8680   14.5650 C.2   195  ARG195      0.2260
    106  O         63.9520   79.7110   13.6840 O.2   195  ARG195     -0.2867
    107  CB        62.9410   79.0970   16.9820 C.3   195  ARG195      0.0307
    108  CG        63.3420   79.0030   18.4660 C.3   195  ARG195      0.0489
    109  CD        62.1700   79.4430   19.3380 C.3   195  ARG195      0.2205
    110  NE        62.3680   79.2130   20.7680 N.pl3 195  ARG195     -0.0865
    111  CZ        61.9960   78.1110   21.4160 C.cat 195  ARG195      0.5346
    112  NH1       61.4060   77.1090   20.7700 N.pl3 195  ARG195      0.1354
    113  NH2       62.2070   78.0130   22.7180 N.pl3 195  ARG195      0.1354
    114  N         58.3750   74.2410   12.5830 N.3   198  SER198     -0.1202
    115  CA        58.0620   72.8130   12.5740 C.3   198  SER198      0.2020
    116  C         56.6050   72.5620   12.1740 C.2   198  SER198      0.2618
    117  O         56.2450   71.4320   11.8410 O.2   198  SER198     -0.2717
    118  CB        58.3410   72.1970   13.9540 C.3   198  SER198      0.2103
    119  OG        57.6400   72.9110   14.9720 O.3   198  SER198     -0.2182
    120  N         55.7860   73.6180   12.2120 N.am  199  ASP199     -0.1973
    121  CA        54.3440   73.5400   11.9890 C.3   199  ASP199      0.1709
    122  C         53.7690   74.9510   11.9320 C.2   199  ASP199      0.2293
    123  O         54.4610   75.9240   12.2440 O.2   199  ASP199     -0.2864
    124  CB        53.6520   72.6840   13.0770 C.3   199  ASP199      0.1436
    125  CG        53.9050   73.2020   14.5060 C.2   199  ASP199      0.3671
    126  OD1       53.1100   74.0260   14.9770 O.co2 199  ASP199     -0.2456
    127  OD2       54.8940   72.7960   15.1460 O.co2 199  ASP199     -0.2456
    128  N         50.8400   75.7830   13.6120 N.3   201  ALA201     -0.1245
    129  CA        50.0380   76.0010   14.8230 C.3   201  ALA201      0.1562
    130  C         48.5270   75.8460   14.5800 C.2   201  ALA201      0.2260
    131  O         47.7080   76.3880   15.3250 O.2   201  ALA201     -0.2867
    132  CB        50.3820   77.3850   15.4520 C.3   201  ALA201      0.0290
    133  N         54.3870   68.7750   13.4210 N.3   209  PHE209     -0.1227
    134  CA        55.4590   68.7730   14.4210 C.3   209  PHE209      0.1736
    135  C         56.2350   67.4660   14.4780 C.2   209  PHE209      0.2595
    136  O         57.4630   67.4750   14.4070 O.2   209  PHE209     -0.2718
    137  CB        54.9100   69.1160   15.8100 C.3   209  PHE209      0.0547
    138  CG        55.9620   69.2330   16.8510 C.ar  209  PHE209     -0.0202
    139  CD1       56.3200   68.1300   17.6170 C.ar  209  PHE209     -0.0042
    140  CD2       56.6090   70.4460   17.0710 C.ar  209  PHE209     -0.0042
    141  CE1       57.3210   68.2340   18.6070 C.ar  209  PHE209     -0.0003
    142  CE2       57.6100   70.5550   18.0450 C.ar  209  PHE209     -0.0003
    143  CZ        57.9580   69.4510   18.8160 C.ar  209  PHE209     -0.0000
    144  N         55.5300   66.3400   14.6210 N.am  210  ASP210     -0.1974
    145  CA        56.1700   65.0260   14.6170 C.3   210  ASP210      0.1709
    146  C         56.9880   64.8160   13.3370 C.2   210  ASP210      0.2293
    147  O         58.0650   64.2460   13.3600 O.2   210  ASP210     -0.2864
    148  CB        55.1260   63.9140   14.6940 C.3   210  ASP210      0.1436
    149  CG        54.4670   63.7890   16.0600 C.2   210  ASP210      0.3671
    150  OD1       53.3450   63.2300   16.1020 O.co2 210  ASP210     -0.2456
    151  OD2       55.0540   64.2040   17.0780 O.co2 210  ASP210     -0.2456
@<TRIPOS>BOND
     1   117   116    2
     2   122   121    1
     3   122   123    2
     4   121   120    1
     5   121   124    1
     6   116   120   am
     7   116   115    1
     8   115   114    1
     9   115   118    1
    10   124   125    1
    11   146   147    2
    12   146   145    1
    13   133   134    1
    14   128   129    1
    15   106   105    2
    16   118   119    1
    17   136   135    2
    18   134   135    1
    19   134   137    1
    20   135   144   am
    21   125   126   ar
    22   125   127   ar
    23    44    45    2
    24    44    43    1
    25   105   104    1
    26   130   129    1
    27   130   131    2
    28   145   144    1
    29   145   148    1
    30   148   149    1
    31    40    39    2
    32   129   132    1
    33    43    42    1
    34   137   138    1
    35    39    42   am
    36    39    38    1
    37   104   103    1
    38   104   107    1
    39   149   150   ar
    40   149   151   ar
    41    37    38    1
    42    37    33   am
    43    41    38    1
    44   138   140   ar
    45   138   139   ar
    46    35    32    1
    47    35    36    1
    48   107   108    1
    49    32    33    1
    50    32    31    1
    51   140   142   ar
    52    33    34    2
    53    70    71    1
    54   139   141   ar
    55    65    64    2
    56    75    74    1
    57   142   143   ar
    58    61    59   ar
    59    61    60   ar
    60   108   109    1
    61    64    63    1
    62    59    57   ar
    63    68    66    1
    64   141   143   ar
    65    73    72    2
    66    71    74    1
    67    71    72    1
    68    74    76    1
    69    60    58   ar
    70    66    63    1
    71    66    67    1
    72   109   110    1
    73    72    77   am
    74    17    16    2
    75    63    62    1
    76    57    56   ar
    77    19    18    1
    78    19    20    1
    79    15    14    1
    80    15    16    1
    81    15    18    1
    82    21    20   ar
    83    58    56   ar
    84    62    53   am
    85    67    69    1
    86    77    78    1
    87    20    22   ar
    88   110   111    2
    89   112   111    1
    90    56    55    1
    91    82    81    1
    92    82    83    1
    93    81    78    1
    94    78    79    1
    95   111   113    1
    96    53    54    2
    97    53    52    1
    98    12    13    1
    99    12    11    1
   100    55    52    1
   101    83    85   ar
   102    83    84   ar
   103    52    51    1
   104    79    80    2
   105    79    86   am
   106    10    11    1
   107    10     7    1
   108     9     8    2
   109    86    87    1
   110    49    48    2
   111    51    48   am
   112     8     7    1
   113    48    47    1
   114     7     6    1
   115    91    92    1
   116    91    90    1
   117     6     3   am
   118   101   100   ar
   119    92    93    1
   120     1     2    1
   121    87    90    1
   122    87    88    1
   123    50    47    1
   124     5     2    1
   125    47    46    1
   126    94    88   am
   127    94    95    1
   128     3     2    1
   129     3     4    2
   130   100   102   ar
   131   100    99    1
   132    30    28    1
   133    88    89    2
   134    96    95    1
   135    96    97    2
   136    98    95    1
   137    98    99    1
   138    28    27    1
   139    29    27    1
   140    27    24    1
   141    24    23    1
   142    24    25    1
   143    25    26    2
