@<TRIPOS>MOLECULE
tmp/3dffA00.pdb
 134 129 0 0 0
SMALL
GASTEIGER

@<TRIPOS>ATOM
      1  N         33.8750   19.7990   12.1490 N.3     9  HIS9       -0.1241
      2  CA        33.3830   20.9120   11.3420 C.3     9  HIS9        0.1621
      3  C         31.8810   20.8700   11.2260 C.2     9  HIS9        0.2264
      4  O         31.2420   19.8830   11.5930 O.2     9  HIS9       -0.2867
      5  CB        33.9420   20.8510    9.9200 C.3     9  HIS9        0.0745
      6  CG        35.4270   20.8900    9.8630 C.ar    9  HIS9        0.0817
      7  ND1       36.1750   19.8720    9.3070 N.ar    9  HIS9       -0.2268
      8  CD2       36.3090   21.8360   10.2630 C.ar    9  HIS9        0.1154
      9  CE1       37.4550   20.1930    9.3720 C.ar    9  HIS9        0.1986
     10  NE2       37.5630   21.3690    9.9670 N.ar    9  HIS9       -0.2212
     11  N         29.2530   19.9920    9.4770 N.3    11  ASP11      -0.1239
     12  CA        28.7870   19.0150    8.4730 C.3    11  ASP11       0.1674
     13  C         29.1910   17.5870    8.8230 C.2    11  ASP11       0.2266
     14  O         28.5190   16.6490    8.4240 O.2    11  ASP11      -0.2867
     15  CB        29.2410   19.3380    7.0430 C.3    11  ASP11       0.1410
     16  CG        30.7790   19.4510    6.8920 C.2    11  ASP11       0.3668
     17  OD1       31.5500   19.2010    7.8400 O.co2  11  ASP11      -0.2456
     18  OD2       31.2090   19.8440    5.7840 O.co2  11  ASP11      -0.2456
     19  N         32.4020   27.5360   -1.7180 N.3    55  TRP55      -0.1241
     20  CA        31.1890   27.3610   -0.9150 C.3    55  TRP55       0.1605
     21  C         30.0250   28.2240   -1.3970 C.2    55  TRP55       0.2264
     22  O         28.9730   28.2680   -0.7530 O.2    55  TRP55      -0.2867
     23  CB        31.4820   27.6880    0.5510 C.3    55  TRP55       0.0550
     24  CG        32.4190   26.7230    1.2050 C.ar   55  TRP55       0.0003
     25  CD1       32.6950   25.4430    0.8150 C.ar   55  TRP55       0.0946
     26  CD2       33.1630   26.9490    2.4060 C.ar   55  TRP55       0.0152
     27  NE1       33.5830   24.8660    1.6910 N.ar   55  TRP55      -0.2442
     28  CE2       33.8830   25.7700    2.6800 C.ar   55  TRP55       0.0810
     29  CE3       33.2820   28.0370    3.2810 C.ar   55  TRP55       0.0012
     30  CZ2       34.7190   25.6470    3.7900 C.ar   55  TRP55       0.0191
     31  CZ3       34.1100   27.9240    4.3690 C.ar   55  TRP55       0.0001
     32  CH2       34.8310   26.7350    4.6150 C.ar   55  TRP55       0.0015
     33  N         27.5080   28.9220    7.6150 N.3    67  ARG67      -0.1245
     34  CA        27.6550   27.5040    7.9110 C.3    67  ARG67       0.1563
     35  C         26.9850   27.1040    9.2170 C.2    67  ARG67       0.2260
     36  O         26.4500   25.9920    9.3590 O.2    67  ARG67      -0.2867
     37  CB        29.1420   27.1130    7.8970 C.3    67  ARG67       0.0307
     38  CG        29.7520   27.1880    6.5060 C.3    67  ARG67       0.0489
     39  CD        31.1200   26.5180    6.4780 C.3    67  ARG67       0.2205
     40  NE        31.0170   25.0730    6.6620 N.pl3  67  ARG67      -0.0865
     41  CZ        32.0680   24.2650    6.8000 C.cat  67  ARG67       0.5346
     42  NH1       33.2920   24.7700    6.8020 N.pl3  67  ARG67       0.1354
     43  NH2       31.8970   22.9600    6.9610 N.pl3  67  ARG67       0.1354
     44  N         38.3570   27.2140   12.4050 N.3    89  ASP89      -0.1225
     45  CA        38.7100   26.2790   11.3430 C.3    89  ASP89       0.1805
     46  C         40.1570   26.5170   10.8870 C.2    89  ASP89       0.2598
     47  O         40.6190   27.6480   10.8820 O.2    89  ASP89      -0.2718
     48  CB        37.7870   26.4560   10.1480 C.3    89  ASP89       0.1424
     49  CG        38.0080   25.3730    9.1060 C.2    89  ASP89       0.3668
     50  OD1       39.0570   25.3680    8.4150 O.co2  89  ASP89      -0.2456
     51  OD2       37.1660   24.4900    9.0190 O.co2  89  ASP89      -0.2456
     52  N         40.8350   25.4550   10.4710 N.am   90  SER90      -0.1938
     53  CA        42.2220   25.5470    9.9740 C.3    90  SER90       0.2055
     54  C         42.4330   26.6710    8.9640 C.2    90  SER90       0.2642
     55  O         43.5150   27.2540    8.9540 O.2    90  SER90      -0.2714
     56  CB        42.6740   24.2180    9.3740 C.3    90  SER90       0.2130
     57  OG        41.8230   23.8470    8.3030 O.3    90  SER90      -0.2179
     58  N         41.4320   27.0000    8.1370 N.am   91  ILE91      -0.1977
     59  CA        41.6380   28.0720    7.1390 C.3    91  ILE91       0.1596
     60  C         41.6880   29.4740    7.7320 C.2    91  ILE91       0.2287
     61  O         42.0160   30.4450    7.0320 O.2    91  ILE91      -0.2864
     62  CB        40.6220   28.0310    5.9740 C.3    91  ILE91       0.0276
     63  CG1       39.1720   28.1420    6.4990 C.3    91  ILE91       0.0022
     64  CG2       40.8340   26.7910    5.1460 C.3    91  ILE91       0.0022
     65  CD1       38.1310   28.4150    5.3580 C.3    91  ILE91       0.0001
     66  N         47.2690   27.6700    6.9360 N.3   102  THR102     -0.1218
     67  CA        47.0170   26.9980    5.6570 C.3   102  THR102      0.1862
     68  C         47.2850   27.9680    4.4990 C.2   102  THR102      0.2287
     69  O         46.9650   29.1510    4.5720 O.2   102  THR102     -0.2866
     70  CB        45.5620   26.4690    5.5720 C.3   102  THR102      0.1770
     71  OG1       44.6850   27.5740    5.6350 O.3   102  THR102     -0.2211
     72  CG2       45.2510   25.5570    6.7480 C.3   102  THR102      0.0375
     73  N         44.9340   21.0210   -3.7030 N.3   110  LYS110     -0.1231
     74  CA        44.9170   20.7940   -2.2570 C.3   110  LYS110      0.1693
     75  C         45.7000   21.8780   -1.5050 C.2   110  LYS110      0.2591
     76  O         46.7930   22.2700   -1.9270 O.2   110  LYS110     -0.2718
     77  CB        45.4750   19.4020   -1.9350 C.3   110  LYS110      0.0285
     78  CG        45.2110   18.9040   -0.5040 C.3   110  LYS110      0.0035
     79  CD        43.7190   18.7480   -0.2310 C.3   110  LYS110      0.0206
     80  CE        43.4570   18.0830    1.1130 C.3   110  LYS110      0.1093
     81  NZ        42.0010   18.1160    1.4370 N.3   110  LYS110     -0.1314
     82  N         45.1300   22.3590   -0.4030 N.am  111  LEU111     -0.1980
     83  CA        45.7880   23.3710    0.4290 C.3   111  LEU111      0.1596
     84  C         46.9020   22.7660    1.2820 C.2   111  LEU111      0.2287
     85  O         46.7600   21.6710    1.8250 O.2   111  LEU111     -0.2864
     86  CB        44.7760   24.0870    1.3240 C.3   111  LEU111      0.0297
     87  CG        43.6700   24.8960    0.6420 C.3   111  LEU111      0.0022
     88  CD1       42.6670   25.3820    1.6740 C.3   111  LEU111      0.0001
     89  CD2       44.2410   26.0680   -0.1460 C.3   111  LEU111      0.0001
     90  N         49.5750   22.9050    4.5550 N.3   113  VAL113     -0.1245
     91  CA        49.7240   23.3910    5.9280 C.3   113  VAL113      0.1561
     92  C         51.1790   23.7860    6.1730 C.2   113  VAL113      0.2260
     93  O         52.0930   23.0120    5.9100 O.2   113  VAL113     -0.2867
     94  CB        49.2960   22.3110    6.9440 C.3   113  VAL113      0.0252
     95  CG1       49.4070   22.8290    8.3510 C.3   113  VAL113      0.0019
     96  CG2       47.8720   21.8780    6.6740 C.3   113  VAL113      0.0019
     97  N         42.5580   14.9740    8.2690 N.3   153  HIS153     -0.1227
     98  CA        42.3980   16.4320    8.3420 C.3   153  HIS153      0.1737
     99  C         42.8530   16.8620    9.7440 C.2   153  HIS153      0.2438
    100  O         42.3960   16.2940   10.7560 O.2   153  HIS153     -0.2733
    101  CB        40.9610   16.8860    8.1020 C.3   153  HIS153      0.0758
    102  CG        40.8130   18.3760    8.0430 C.ar  153  HIS153      0.0818
    103  ND1       40.4260   19.0420    6.8990 N.ar  153  HIS153     -0.2268
    104  CD2       41.0090   19.3310    8.9860 C.ar  153  HIS153      0.1154
    105  CE1       40.3860   20.3400    7.1430 C.ar  153  HIS153      0.1986
    106  NE2       40.7460   20.5440    8.4000 N.ar  153  HIS153     -0.2212
    107  N         43.7610   17.8400    9.8260 N.am  154  PRO154     -0.2729
    108  CA        44.2960   18.2290   11.1440 C.3   154  PRO154      0.1401
    109  C         43.2080   18.5690   12.1820 C.2   154  PRO154      0.2269
    110  O         43.3730   18.2880   13.3890 O.2   154  PRO154     -0.2865
    111  CB        45.1160   19.4780   10.8320 C.3   154  PRO154      0.0296
    112  CG        45.4500   19.3920    9.3680 C.3   154  PRO154      0.0237
    113  CD        44.3960   18.5710    8.7060 C.3   154  PRO154      0.0939
    114  N         35.0640   10.8300    3.3640 N.3   182  TYR182     -0.1241
    115  CA        36.5120   10.5310    3.3520 C.3   182  TYR182      0.1605
    116  C         36.8230    9.0540    3.1980 C.2   182  TYR182      0.2264
    117  O         37.7540    8.6620    2.4970 O.2   182  TYR182     -0.2867
    118  CB        37.1560   10.9440    4.6720 C.3   182  TYR182      0.0534
    119  CG        37.4280   12.4090    4.8690 C.ar  182  TYR182     -0.0201
    120  CD1       38.5410   13.0160    4.2870 C.ar  182  TYR182     -0.0009
    121  CD2       36.6040   13.1810    5.6940 C.ar  182  TYR182     -0.0009
    122  CE1       38.8160   14.3640    4.5020 C.ar  182  TYR182      0.0417
    123  CE2       36.8730   14.5320    5.9210 C.ar  182  TYR182      0.0417
    124  CZ        37.9810   15.1090    5.3260 C.ar  182  TYR182      0.1957
    125  OH        38.2500   16.4350    5.5490 O.3   182  TYR182     -0.2866
    126  N         28.3360   23.1210    1.0080 N.3   223  GLN223     -0.1245
    127  CA        29.2020   21.9710    0.8350 C.3   223  GLN223      0.1566
    128  C         28.7870   21.0540   -0.2990 C.2   223  GLN223      0.2260
    129  O         29.5350   20.1570   -0.6650 O.2   223  GLN223     -0.2867
    130  CB        29.2440   21.1680    2.1370 C.3   223  GLN223      0.0367
    131  CG        29.6190   22.0000    3.3490 C.3   223  GLN223      0.0905
    132  CD        30.9710   22.6770    3.2120 C.2   223  GLN223      0.2608
    133  OE1       31.9930   22.0170    2.9560 O.2   223  GLN223     -0.2717
    134  NE2       30.9940   24.0010    3.3990 N.am  223  GLN223     -0.0878
@<TRIPOS>BOND
     1    73    74    1
     2    74    77    1
     3    74    75    1
     4    77    78    1
     5    76    75    2
     6    19    20    1
     7    75    82   am
     8    21    20    1
     9    21    22    2
    10    20    23    1
    11   129   128    2
    12    78    79    1
    13    82    83    1
    14   128   127    1
    15    79    80    1
    16    89    87    1
    17    83    84    1
    18    83    86    1
    19    23    24    1
    20    87    86    1
    21    87    88    1
    22    25    24   ar
    23    25    27   ar
    24   127   126    1
    25   127   130    1
    26    80    81    1
    27    24    26   ar
    28    84    85    2
    29    27    28   ar
    30   130   131    1
    31    26    28   ar
    32    26    29   ar
    33   117   116    2
    34    28    30   ar
    35   133   132    2
    36   116   115    1
    37   132   131    1
    38   132   134   am
    39    29    31   ar
    40   115   114    1
    41   115   118    1
    42    30    32   ar
    43   120   122   ar
    44   120   119   ar
    45    31    32   ar
    46    68    69    2
    47    68    67    1
    48   122   124   ar
    49    90    91    1
    50   118   119    1
    51   119   121   ar
    52    64    62    1
    53   124   125    1
    54   124   123   ar
    55    65    63    1
    56    70    71    1
    57    70    67    1
    58    70    72    1
    59    67    66    1
    60   121   123   ar
    61    18    16   ar
    62    93    92    2
    63    91    92    1
    64    91    94    1
    65    62    63    1
    66    62    59    1
    67    39    38    1
    68    39    40    1
    69    38    37    1
    70    40    41    2
    71    96    94    1
    72    41    42    1
    73    41    43    1
    74    16    15    1
    75    16    17   ar
    76   103   105   ar
    77   103   102   ar
    78    94    95    1
    79    61    60    2
    80    15    12    1
    81    59    60    1
    82    59    58    1
    83   105   106   ar
    84    33    34    1
    85    37    34    1
    86    34    35    1
    87   102   101    1
    88   102   104   ar
    89   101    98    1
    90    58    54   am
    91    97    98    1
    92    57    56    1
    93    98    99    1
    94   106   104   ar
    95    50    49   ar
    96    14    13    2
    97    12    13    1
    98    12    11    1
    99   113   112    1
   100   113   107    1
   101    55    54    2
   102    54    53    1
   103    51    49   ar
   104    49    48    1
   105    35    36    2
   106     7     9   ar
   107     7     6   ar
   108   112   111    1
   109     9    10   ar
   110    56    53    1
   111    99   107   am
   112    99   100    2
   113   107   108    1
   114     6     5    1
   115     6     8   ar
   116     5     2    1
   117    10     8   ar
   118    53    52    1
   119    48    45    1
   120    52    46   am
   121   111   108    1
   122    47    46    2
   123    46    45    1
   124   108   109    1
   125     3     2    1
   126     3     4    2
   127     2     1    1
   128    45    44    1
   129   109   110    2
