@<TRIPOS>MOLECULE
tmp/3dfkA00.pdb
 173 167 0 0 0
SMALL
GASTEIGER

@<TRIPOS>ATOM
      1  N         33.3180   19.7920   12.1630 N.3     9  HIS9       -0.1241
      2  CA        32.8660   20.8920   11.3300 C.3     9  HIS9        0.1621
      3  C         31.3710   20.8790   11.2170 C.2     9  HIS9        0.2264
      4  O         30.7220   19.8820   11.5530 O.2     9  HIS9       -0.2867
      5  CB        33.4080   20.7750    9.9210 C.3     9  HIS9        0.0745
      6  CG        34.9020   20.8400    9.8480 C.ar    9  HIS9        0.0817
      7  ND1       35.6590   19.8260    9.3000 N.ar    9  HIS9       -0.2268
      8  CD2       35.7690   21.7930   10.2510 C.ar    9  HIS9        0.1154
      9  CE1       36.9380   20.1590    9.3670 C.ar    9  HIS9        0.1986
     10  NE2       37.0330   21.3430    9.9480 N.ar    9  HIS9       -0.2212
     11  N         28.7970   20.0030    9.4130 N.3    11  ASP11      -0.1225
     12  CA        28.3000   19.0060    8.4390 C.3    11  ASP11       0.1805
     13  C         28.6880   17.5720    8.7980 C.2    11  ASP11       0.2597
     14  O         28.0410   16.6270    8.3850 O.2    11  ASP11      -0.2718
     15  CB        28.6710   19.3030    6.9800 C.3    11  ASP11       0.1424
     16  CG        30.1610   19.3790    6.7400 C.2    11  ASP11       0.3668
     17  OD1       30.9480   19.2280    7.6940 O.co2  11  ASP11      -0.2456
     18  OD2       30.5310   19.6240    5.5760 O.co2  11  ASP11      -0.2456
     19  N         29.7560   17.4010    9.5650 N.am   12  ASP12      -0.1974
     20  CA        30.3480   16.0750    9.6720 C.3    12  ASP12       0.1709
     21  C         29.4520   15.0810   10.3980 C.2    12  ASP12       0.2293
     22  O         29.3340   13.9320    9.9760 O.2    12  ASP12      -0.2864
     23  CB        31.7110   16.1450   10.3540 C.3    12  ASP12       0.1436
     24  CG        32.7630   16.7880    9.4750 C.2    12  ASP12       0.3671
     25  OD1       32.9350   16.3580    8.3200 O.co2  12  ASP12      -0.2456
     26  OD2       33.4060   17.7340    9.9510 O.co2  12  ASP12      -0.2456
     27  N         26.5280   14.0980    8.0510 N.3    15  LEU15      -0.1245
     28  CA        27.0200   13.2450    6.9700 C.3    15  LEU15       0.1561
     29  C         27.3540   11.8310    7.4510 C.2    15  LEU15       0.2260
     30  O         27.0810   10.8400    6.7700 O.2    15  LEU15      -0.2867
     31  CB        28.2800   13.8660    6.3590 C.3    15  LEU15       0.0270
     32  CG        28.1200   14.9750    5.3130 C.3    15  LEU15       0.0019
     33  CD1       29.4380   15.7290    5.1910 C.3    15  LEU15       0.0001
     34  CD2       27.7140   14.3610    3.9840 C.3    15  LEU15       0.0001
     35  N         32.0150   27.4630   -1.7970 N.3    55  TRP55      -0.1241
     36  CA        30.7960   27.3420   -0.9920 C.3    55  TRP55       0.1605
     37  C         29.6330   28.1990   -1.4920 C.2    55  TRP55       0.2264
     38  O         28.5460   28.2010   -0.8900 O.2    55  TRP55      -0.2867
     39  CB        31.0900   27.6910    0.4680 C.3    55  TRP55       0.0550
     40  CG        32.0130   26.7380    1.1360 C.ar   55  TRP55       0.0003
     41  CD1       32.3360   25.4810    0.7220 C.ar   55  TRP55       0.0946
     42  CD2       32.7330   26.9590    2.3520 C.ar   55  TRP55       0.0152
     43  NE1       33.2110   24.9010    1.6070 N.ar   55  TRP55      -0.2442
     44  CE2       33.4780   25.7910    2.6130 C.ar   55  TRP55       0.0810
     45  CE3       32.8260   28.0360    3.2430 C.ar   55  TRP55       0.0012
     46  CZ2       34.3070   25.6630    3.7320 C.ar   55  TRP55       0.0191
     47  CZ3       33.6650   27.9140    4.3480 C.ar   55  TRP55       0.0001
     48  CH2       34.3900   26.7310    4.5790 C.ar   55  TRP55       0.0015
     49  N         27.0500   28.9380    7.4420 N.3    67  ARG67      -0.1245
     50  CA        27.1660   27.5260    7.7710 C.3    67  ARG67       0.1563
     51  C         26.4940   27.1440    9.0870 C.2    67  ARG67       0.2260
     52  O         25.9600   26.0320    9.2200 O.2    67  ARG67      -0.2867
     53  CB        28.6440   27.1180    7.7620 C.3    67  ARG67       0.0307
     54  CG        29.2330   27.1600    6.3640 C.3    67  ARG67       0.0489
     55  CD        30.6110   26.5090    6.3780 C.3    67  ARG67       0.2205
     56  NE        30.4980   25.0740    6.6390 N.pl3  67  ARG67      -0.0865
     57  CZ        31.5310   24.2520    6.7710 C.cat  67  ARG67       0.5346
     58  NH1       32.7670   24.7180    6.6700 N.pl3  67  ARG67       0.1354
     59  NH2       31.3260   22.9610    7.0000 N.pl3  67  ARG67       0.1354
     60  N         37.8150   27.1970   12.3540 N.3    89  ASP89      -0.1225
     61  CA        38.1350   26.2370   11.3110 C.3    89  ASP89       0.1805
     62  C         39.5740   26.4840   10.8510 C.2    89  ASP89       0.2598
     63  O         40.0630   27.6070   10.9090 O.2    89  ASP89      -0.2718
     64  CB        37.2170   26.4550   10.1110 C.3    89  ASP89       0.1424
     65  CG        37.4130   25.4100    9.0330 C.2    89  ASP89       0.3668
     66  OD1       38.4960   25.3570    8.3880 O.co2  89  ASP89      -0.2456
     67  OD2       36.4690   24.6480    8.8090 O.co2  89  ASP89      -0.2456
     68  N         40.2250   25.4290   10.3900 N.am   90  SER90      -0.1938
     69  CA        41.6250   25.5310    9.9640 C.3    90  SER90       0.2055
     70  C         41.8600   26.6430    8.9260 C.2    90  SER90       0.2642
     71  O         42.9460   27.1980    8.8750 O.2    90  SER90      -0.2714
     72  CB        42.1410   24.1750    9.4860 C.3    90  SER90       0.2130
     73  OG        41.4440   23.7640    8.3320 O.3    90  SER90      -0.2179
     74  N         40.8600   26.9860    8.1110 N.am   91  ILE91      -0.1977
     75  CA        41.0660   28.0590    7.1090 C.3    91  ILE91       0.1596
     76  C         41.1240   29.4750    7.6730 C.2    91  ILE91       0.2287
     77  O         41.4620   30.4290    6.9540 O.2    91  ILE91      -0.2864
     78  CB        40.0670   28.0080    5.9430 C.3    91  ILE91       0.0276
     79  CG1       38.6270   28.1360    6.4700 C.3    91  ILE91       0.0022
     80  CG2       40.2560   26.7370    5.1670 C.3    91  ILE91       0.0022
     81  CD1       37.6220   28.4970    5.3830 C.3    91  ILE91       0.0001
     82  N         46.6140   27.6950    6.9160 N.3   102  THR102     -0.1218
     83  CA        46.3470   27.0220    5.6490 C.3   102  THR102      0.1862
     84  C         46.6610   27.9440    4.4690 C.2   102  THR102      0.2287
     85  O         46.3290   29.1270    4.4760 O.2   102  THR102     -0.2866
     86  CB        44.8690   26.5630    5.5580 C.3   102  THR102      0.1770
     87  OG1       44.0440   27.7060    5.7160 O.3   102  THR102     -0.2211
     88  CG2       44.5560   25.5830    6.6390 C.3   102  THR102      0.0375
     89  N         44.5170   20.9920   -3.7530 N.3   110  LYS110     -0.1231
     90  CA        44.5090   20.7230   -2.3180 C.3   110  LYS110      0.1693
     91  C         45.2230   21.8300   -1.5430 C.2   110  LYS110      0.2591
     92  O         46.3160   22.2550   -1.9140 O.2   110  LYS110     -0.2718
     93  CB        45.1320   19.3490   -2.0230 C.3   110  LYS110      0.0285
     94  CG        44.7760   18.7610   -0.6500 C.3   110  LYS110      0.0035
     95  CD        43.2630   18.6400   -0.4660 C.3   110  LYS110      0.0206
     96  CE        42.8910   18.5420    1.0040 C.3   110  LYS110      0.1093
     97  NZ        41.4260   18.6960    1.1950 N.3   110  LYS110     -0.1314
     98  N         44.5850   22.3060   -0.4780 N.am  111  LEU111     -0.1980
     99  CA        45.1940   23.3230    0.3820 C.3   111  LEU111      0.1596
    100  C         46.3150   22.7100    1.2050 C.2   111  LEU111      0.2287
    101  O         46.2330   21.5530    1.6160 O.2   111  LEU111     -0.2864
    102  CB        44.1550   23.9620    1.3000 C.3   111  LEU111      0.0297
    103  CG        42.9880   24.6880    0.6230 C.3   111  LEU111      0.0022
    104  CD1       41.9990   25.1100    1.6810 C.3   111  LEU111      0.0001
    105  CD2       43.4460   25.8920   -0.1840 C.3   111  LEU111      0.0001
    106  N         48.9700   22.8430    4.5540 N.3   113  VAL113     -0.1245
    107  CA        49.0480   23.3460    5.9260 C.3   113  VAL113      0.1561
    108  C         50.4940   23.7460    6.2230 C.2   113  VAL113      0.2260
    109  O         51.4140   22.9680    5.9690 O.2   113  VAL113     -0.2867
    110  CB        48.5700   22.2910    6.9570 C.3   113  VAL113      0.0252
    111  CG1       48.6390   22.8590    8.3440 C.3   113  VAL113      0.0019
    112  CG2       47.1490   21.8240    6.6610 C.3   113  VAL113      0.0019
    113  N         41.9820   14.9360    8.3110 N.3   153  HIS153     -0.1227
    114  CA        41.8380   16.3890    8.3840 C.3   153  HIS153      0.1737
    115  C         42.2970   16.8070    9.7720 C.2   153  HIS153      0.2438
    116  O         41.9080   16.1650   10.7560 O.2   153  HIS153     -0.2733
    117  CB        40.3820   16.8220    8.1670 C.3   153  HIS153      0.0758
    118  CG        40.2190   18.2970    7.9700 C.ar  153  HIS153      0.0818
    119  ND1       40.4080   19.2160    8.9830 N.ar  153  HIS153     -0.2268
    120  CD2       39.8990   19.0130    6.8690 C.ar  153  HIS153      0.1154
    121  CE1       40.2140   20.4330    8.5100 C.ar  153  HIS153      0.1986
    122  NE2       39.8950   20.3350    7.2330 N.ar  153  HIS153     -0.2212
    123  N         43.1450   17.8530    9.8610 N.am  154  PRO154     -0.2729
    124  CA        43.6840   18.2650   11.1730 C.3   154  PRO154      0.1401
    125  C         42.5890   18.6020   12.1780 C.2   154  PRO154      0.2269
    126  O         42.7530   18.3300   13.3790 O.2   154  PRO154     -0.2865
    127  CB        44.4630   19.5420   10.8650 C.3   154  PRO154      0.0296
    128  CG        44.7400   19.5000    9.3820 C.3   154  PRO154      0.0237
    129  CD        43.6560   18.6830    8.7540 C.3   154  PRO154      0.0939
    130  N         31.9270   11.8590    3.5670 N.3   181  PRO181     -0.2102
    131  CA        32.1940   10.8190    2.5600 C.3   181  PRO181      0.1504
    132  C         33.6480   10.3120    2.5350 C.2   181  PRO181      0.2575
    133  O         33.9570    9.4330    1.7380 O.2   181  PRO181     -0.2718
    134  CB        31.8770   11.5380    1.2500 C.3   181  PRO181      0.0282
    135  CG        32.2550   12.9430    1.5250 C.3   181  PRO181      0.0208
    136  CD        31.8770   13.2010    2.9610 C.3   181  PRO181      0.0893
    137  N         34.5130   10.8530    3.3940 N.am  182  TYR182     -0.1977
    138  CA        35.9460   10.4790    3.4160 C.3   182  TYR182      0.1639
    139  C         36.2450    8.9830    3.2700 C.2   182  TYR182      0.2290
    140  O         37.1490    8.5830    2.5200 O.2   182  TYR182     -0.2864
    141  CB        36.5570   10.8810    4.7390 C.3   182  TYR182      0.0560
    142  CG        36.8190   12.3320    4.9790 C.ar  182  TYR182     -0.0198
    143  CD1       37.9960   12.9310    4.5170 C.ar  182  TYR182     -0.0009
    144  CD2       35.9420   13.0960    5.7490 C.ar  182  TYR182     -0.0009
    145  CE1       38.2770   14.2700    4.7880 C.ar  182  TYR182      0.0417
    146  CE2       36.2130   14.4360    6.0270 C.ar  182  TYR182      0.0417
    147  CZ        37.3840   15.0110    5.5470 C.ar  182  TYR182      0.1957
    148  OH        37.6690   16.3280    5.8130 O.3   182  TYR182     -0.2866
    149  N         27.8590   23.0960    0.9550 N.3   223  GLN223     -0.1245
    150  CA        28.7360   21.9430    0.8640 C.3   223  GLN223      0.1566
    151  C         28.3600   21.0060   -0.2730 C.2   223  GLN223      0.2260
    152  O         29.1310   20.1170   -0.6180 O.2   223  GLN223     -0.2867
    153  CB        28.7620   21.1810    2.2040 C.3   223  GLN223      0.0367
    154  CG        29.1340   22.0430    3.4140 C.3   223  GLN223      0.0905
    155  CD        30.4770   22.7490    3.2610 C.2   223  GLN223      0.2608
    156  OE1       31.5160   22.1100    3.0490 O.2   223  GLN223     -0.2717
    157  NE2       30.4600   24.0730    3.3600 N.am  223  GLN223     -0.0878
    158  N         30.6710   20.7030   -3.5520 N.3   225  LEU225     -0.1231
    159  CA        31.9090   20.0950   -3.0930 C.3   225  LEU225      0.1693
    160  C         31.7500   18.5980   -2.7890 C.2   225  LEU225      0.2591
    161  O         32.5710   17.7800   -3.2070 O.2   225  LEU225     -0.2718
    162  CB        32.4100   20.8520   -1.8630 C.3   225  LEU225      0.0284
    163  CG        33.8260   20.6790   -1.3300 C.3   225  LEU225      0.0019
    164  CD1       34.8420   21.1750   -2.3430 C.3   225  LEU225      0.0001
    165  CD2       33.9590   21.4540   -0.0090 C.3   225  LEU225      0.0001
    166  N         30.6810   18.2450   -2.0810 N.am  226  LEU226     -0.1980
    167  CA        30.4250   16.8510   -1.7040 C.3   226  LEU226      0.1596
    168  C         29.9460   15.9710   -2.8630 C.2   226  LEU226      0.2287
    169  O         30.2660   14.7810   -2.9130 O.2   226  LEU226     -0.2864
    170  CB        29.4160   16.7820   -0.5580 C.3   226  LEU226      0.0297
    171  CG        29.8720   17.2350    0.8310 C.3   226  LEU226      0.0022
    172  CD1       28.6640   17.3910    1.7170 C.3   226  LEU226      0.0001
    173  CD2       30.8330   16.2410    1.4410 C.3   226  LEU226      0.0001
@<TRIPOS>BOND
     1    89    90    1
     2   158   159    1
     3   161   160    2
     4   159   160    1
     5   159   162    1
     6   169   168    2
     7   168   167    1
     8   160   166   am
     9   164   163    1
    10    90    93    1
    11    90    91    1
    12   166   167    1
    13    93    94    1
    14    92    91    2
    15   162   163    1
    16    35    36    1
    17   167   170    1
    18    91    98   am
    19    37    36    1
    20    37    38    2
    21   163   165    1
    22    36    39    1
    23    94    95    1
    24   152   151    2
    25   170   171    1
    26    98    99    1
    27    95    96    1
    28   151   150    1
    29   105   103    1
    30    99   100    1
    31    99   102    1
    32    39    40    1
    33   103   102    1
    34   103   104    1
    35    41    40   ar
    36    41    43   ar
    37   171   173    1
    38   171   172    1
    39   150   149    1
    40   150   153    1
    41    96    97    1
    42    40    42   ar
    43   100   101    2
    44   134   135    1
    45   134   131    1
    46   135   136    1
    47    43    44   ar
    48   133   132    2
    49   153   154    1
    50    42    44   ar
    51    42    45   ar
    52   140   139    2
    53   132   131    1
    54   132   137   am
    55   131   130    1
    56    44    46   ar
    57   136   130    1
    58   156   155    2
    59    45    47   ar
    60   155   157   am
    61   155   154    1
    62   139   138    1
    63   137   138    1
    64   138   141    1
    65    46    48   ar
    66    34    32    1
    67    47    48   ar
    68    84    85    2
    69    84    83    1
    70   143   145   ar
    71   143   142   ar
    72   106   107    1
    73   141   142    1
    74   145   147   ar
    75   142   144   ar
    76    80    78    1
    77    33    32    1
    78    32    31    1
    79    81    79    1
    80   147   148    1
    81   147   146   ar
    82    86    83    1
    83    86    87    1
    84    86    88    1
    85    18    16   ar
    86    83    82    1
    87   144   146   ar
    88   107   108    1
    89   107   110    1
    90    78    79    1
    91    78    75    1
    92   109   108    2
    93    31    28    1
    94    54    55    1
    95    54    53    1
    96    55    56    1
    97    56    57    2
    98   112   110    1
    99    58    57    1
   100    16    15    1
   101    16    17   ar
   102    30    29    2
   103    57    59    1
   104   120   122   ar
   105   120   118   ar
   106    77    76    2
   107   110   111    1
   108    28    29    1
   109    28    27    1
   110    15    12    1
   111    75    76    1
   112    75    74    1
   113   122   121   ar
   114    49    50    1
   115    53    50    1
   116    50    51    1
   117   118   117    1
   118   118   119   ar
   119    74    70   am
   120   117   114    1
   121   113   114    1
   122    25    24   ar
   123    73    72    1
   124   114   115    1
   125    14    13    2
   126    66    65   ar
   127    12    13    1
   128    12    11    1
   129   121   119   ar
   130   129   128    1
   131   129   123    1
   132    13    19   am
   133    67    65   ar
   134    71    70    2
   135    70    69    1
   136    65    64    1
   137    51    52    2
   138     7     9   ar
   139     7     6   ar
   140     9    10   ar
   141   128   127    1
   142    24    26   ar
   143    24    23    1
   144    72    69    1
   145    19    20    1
   146    20    23    1
   147    20    21    1
   148   115   123   am
   149   115   116    2
   150     6     5    1
   151     6     8   ar
   152   123   124    1
   153     5     2    1
   154    10     8   ar
   155    69    68    1
   156    22    21    2
   157    64    61    1
   158    68    62   am
   159    62    63    2
   160    62    61    1
   161   127   124    1
   162   124   125    1
   163     3     2    1
   164     3     4    2
   165    61    60    1
   166     2     1    1
   167   125   126    2
