@<TRIPOS>MOLECULE
tmp/3dfoC00.pdb
 111 103 0 0 0
SMALL
GASTEIGER

@<TRIPOS>ATOM
      1  N        -38.3080  -33.3010    6.3140 N.3    31  ALA31      -0.1245
      2  CA       -36.9070  -33.0660    5.9990 C.3    31  ALA31       0.1562
      3  C        -36.5980  -33.7950    4.6980 C.2    31  ALA31       0.2260
      4  O        -36.3830  -35.0040    4.6930 O.2    31  ALA31      -0.2867
      5  CB       -36.0230  -33.5860    7.1220 C.3    31  ALA31       0.0290
      6  N        -34.1000  -32.6880    2.4940 N.3    33  ASN33      -0.1240
      7  CA       -32.8950  -32.0090    2.0340 C.3    33  ASN33       0.1653
      8  C        -31.6820  -32.8880    1.7450 C.2    33  ASN33       0.2266
      9  O        -30.5430  -32.4190    1.8080 O.2    33  ASN33      -0.2867
     10  CB       -32.4990  -30.9230    3.0390 C.3    33  ASN33       0.1155
     11  CG       -32.2730  -31.4730    4.4350 C.2    33  ASN33       0.2627
     12  OD1      -33.2140  -31.8820    5.1150 O.2    33  ASN33      -0.2716
     13  ND2      -31.0180  -31.4880    4.8690 N.am   33  ASN33      -0.0877
     14  N        -31.2740  -24.9970    7.8570 N.3   146  LYS146     -0.1245
     15  CA       -30.8480  -26.1020    8.6990 C.3   146  LYS146      0.1561
     16  C        -29.3460  -26.2930    8.5770 C.2   146  LYS146      0.2260
     17  O        -28.7870  -26.2560    7.4760 O.2   146  LYS146     -0.2867
     18  CB       -31.5420  -27.4030    8.2960 C.3   146  LYS146      0.0271
     19  CG       -31.5440  -28.4280    9.4150 C.3   146  LYS146      0.0035
     20  CD       -31.6100  -29.8510    8.8960 C.3   146  LYS146      0.0206
     21  CE       -30.3070  -30.2450    8.2190 C.3   146  LYS146      0.1093
     22  NZ       -30.2670  -31.7030    7.9130 N.3   146  LYS146     -0.1314
     23  N        -26.3850  -28.9340   10.2310 N.3   148  ARG148     -0.1245
     24  CA       -26.1580  -30.1280   11.0310 C.3   148  ARG148      0.1563
     25  C        -24.7420  -30.3170   11.5540 C.2   148  ARG148      0.2260
     26  O        -23.7760  -30.2800   10.7990 O.2   148  ARG148     -0.2867
     27  CB       -26.5550  -31.3700   10.2250 C.3   148  ARG148      0.0307
     28  CG       -26.3710  -32.7000   10.9580 C.3   148  ARG148      0.0489
     29  CD       -26.8430  -33.8570   10.0770 C.3   148  ARG148      0.2205
     30  NE       -26.7960  -35.1550   10.7480 N.pl3 148  ARG148     -0.0865
     31  CZ       -25.9640  -36.1400   10.4240 C.cat 148  ARG148      0.5346
     32  NH1      -25.0930  -35.9830    9.4360 N.pl3 148  ARG148      0.1354
     33  NH2      -26.0130  -37.2920   11.0760 N.pl3 148  ARG148      0.1354
     34  N        -29.1750  -27.7610   14.7880 N.3   187  GLU187     -0.1245
     35  CA       -29.1720  -29.2170   14.8920 C.3   187  GLU187      0.1567
     36  C        -27.8830  -29.8400   15.4240 C.2   187  GLU187      0.2260
     37  O        -26.9450  -30.0950   14.6680 O.2   187  GLU187     -0.2867
     38  CB       -29.5060  -29.8480   13.5300 C.3   187  GLU187      0.0388
     39  CG       -29.5630  -31.3800   13.5530 C.3   187  GLU187      0.1160
     40  CD       -29.8510  -31.9930   12.1840 C.2   187  GLU187      0.3649
     41  OE1      -29.9650  -31.2420   11.1910 O.co2 187  GLU187     -0.2457
     42  OE2      -29.9610  -33.2330   12.1010 O.co2 187  GLU187     -0.2457
     43  N        -26.8330  -32.9440   16.4940 N.3   189  GLU189     -0.1245
     44  CA       -27.1320  -34.3620   16.5770 C.3   189  GLU189      0.1567
     45  C        -26.1000  -35.2330   17.2550 C.2   189  GLU189      0.2260
     46  O        -24.9270  -35.2570   16.8830 O.2   189  GLU189     -0.2867
     47  CB       -27.4280  -34.9470   15.1910 C.3   189  GLU189      0.0388
     48  CG       -27.3670  -36.4780   15.1710 C.3   189  GLU189      0.1160
     49  CD       -28.0780  -37.1060   13.9900 C.2   189  GLU189      0.3649
     50  OE1      -28.0850  -36.5030   12.8940 O.co2 189  GLU189     -0.2457
     51  OE2      -28.6180  -38.2230   14.1570 O.co2 189  GLU189     -0.2457
     52  N        -33.2230  -28.8030   16.7110 N.3   229  LYS229     -0.1245
     53  CA       -33.4040  -30.1190   16.1070 C.3   229  LYS229      0.1561
     54  C        -32.4330  -31.0840   16.7760 C.2   229  LYS229      0.2260
     55  O        -31.3370  -31.3360   16.2680 O.2   229  LYS229     -0.2867
     56  CB       -33.1300  -30.0780   14.6020 C.3   229  LYS229      0.0271
     57  CG       -33.3760  -31.4140   13.9080 C.3   229  LYS229      0.0035
     58  CD       -33.1700  -31.3320   12.3940 C.3   229  LYS229      0.0206
     59  CE       -33.5060  -32.6730   11.7290 C.3   229  LYS229      0.1093
     60  NZ       -33.1090  -32.7440   10.3180 N.3   229  LYS229     -0.1314
     61  N        -35.2310  -35.2150   15.2920 N.3   270  LEU270     -0.1231
     62  CA       -34.7550  -35.9300   14.1290 C.3   270  LEU270      0.1693
     63  C        -35.0700  -37.3960   14.4630 C.2   270  LEU270      0.2593
     64  O        -35.1010  -37.7690   15.6390 O.2   270  LEU270     -0.2718
     65  CB       -33.2510  -35.7020   13.9710 C.3   270  LEU270      0.0284
     66  CG       -32.3400  -36.0810   15.1390 C.3   270  LEU270      0.0019
     67  CD1      -31.9100  -37.5330   14.9880 C.3   270  LEU270      0.0001
     68  CD2      -31.1030  -35.1790   15.1380 C.3   270  LEU270      0.0001
     69  N        -35.3270  -38.2180   13.4500 N.am  271  SER271     -0.1938
     70  CA       -35.6530  -39.6250   13.6910 C.3   271  SER271      0.2055
     71  C        -34.4020  -40.4830   13.8730 C.2   271  SER271      0.2643
     72  O        -34.4610  -41.5830   14.4290 O.2   271  SER271     -0.2714
     73  CB       -36.5140  -40.1740   12.5460 C.3   271  SER271      0.2130
     74  OG       -35.8650  -40.0470   11.2960 O.3   271  SER271     -0.2179
     75  N        -33.2780  -39.9670   13.3900 N.am  272  GLY272     -0.1954
     76  CA       -31.9980  -40.6400   13.5120 C.3   272  GLY272      0.1869
     77  C        -31.9260  -42.1450   13.3530 C.2   272  GLY272      0.2309
     78  O        -31.2320  -42.8080   14.1210 O.2   272  GLY272     -0.2863
     79  N        -39.1440  -33.3020   12.6690 N.3   300  SER300     -0.1202
     80  CA       -38.4110  -32.7810   11.5230 C.3   300  SER300      0.2020
     81  C        -37.8090  -34.0750   11.0230 C.2   300  SER300      0.2619
     82  O        -36.6180  -34.3260   11.1910 O.2   300  SER300     -0.2717
     83  CB       -37.2990  -31.8170   11.9210 C.3   300  SER300      0.2103
     84  OG       -36.5760  -31.4270   10.7610 O.3   300  SER300     -0.2182
     85  N        -38.6610  -34.9130   10.4400 N.am  301  TYR301     -0.1961
     86  CA       -38.2380  -36.2230    9.9570 C.3   301  TYR301      0.1771
     87  C        -37.8590  -36.3220    8.4930 C.2   301  TYR301      0.2620
     88  O        -38.4830  -35.7170    7.6270 O.2   301  TYR301     -0.2715
     89  CB       -39.3260  -37.2680   10.2260 C.3   301  TYR301      0.0574
     90  CG       -39.6400  -37.5370   11.6860 C.ar  301  TYR301     -0.0198
     91  CD1      -38.7400  -37.1940   12.6990 C.ar  301  TYR301     -0.0009
     92  CD2      -40.8280  -38.1790   12.0490 C.ar  301  TYR301     -0.0009
     93  CE1      -39.0200  -37.4900   14.0440 C.ar  301  TYR301      0.0417
     94  CE2      -41.1140  -38.4800   13.3800 C.ar  301  TYR301      0.0417
     95  CZ       -40.2080  -38.1350   14.3720 C.ar  301  TYR301      0.1957
     96  OH       -40.4930  -38.4510   15.6830 O.3   301  TYR301     -0.2866
     97  N        -36.8270  -37.1120    8.2310 N.am  302  GLY302     -0.1940
     98  CA       -36.3950  -37.3380    6.8690 C.3   302  GLY302      0.2014
     99  C        -36.7950  -38.7650    6.5430 C.2   302  GLY302      0.2638
    100  O        -37.8020  -39.0130    5.8780 O.2   302  GLY302     -0.2714
    101  N        -36.0130  -39.7070    7.0540 N.am  303  ARG303     -0.1977
    102  CA       -36.2550  -41.1240    6.8350 C.3   303  ARG303      0.1597
    103  C        -37.6020  -41.5910    7.4010 C.2   303  ARG303      0.2287
    104  O        -38.3190  -42.3600    6.7590 O.2   303  ARG303     -0.2864
    105  CB       -35.1060  -41.9290    7.4550 C.3   303  ARG303      0.0334
    106  CG       -33.7760  -41.7240    6.7370 C.3   303  ARG303      0.0492
    107  CD       -32.5870  -42.1600    7.5760 C.3   303  ARG303      0.2205
    108  NE       -32.3400  -41.2470    8.6900 N.pl3 303  ARG303     -0.0865
    109  CZ       -31.2820  -41.3170    9.4920 C.cat 303  ARG303      0.5346
    110  NH1      -30.3700  -42.2600    9.3050 N.pl3 303  ARG303      0.1354
    111  NH2      -31.1300  -40.4410   10.4770 N.pl3 303  ARG303      0.1354
@<TRIPOS>BOND
     1     8     9    2
     2     8     7    1
     3     7     6    1
     4     7    10    1
     5    10    11    1
     6    11    13   am
     7    11    12    2
     8     4     3    2
     9     3     2    1
    10   100    99    2
    11     2     1    1
    12     2     5    1
    13    99    98    1
    14    99   101   am
    15   106   105    1
    16   106   107    1
    17   104   103    2
    18   102   101    1
    19   102   103    1
    20   102   105    1
    21    98    97    1
    22    17    16    2
    23   107   108    1
    24    88    87    2
    25    14    15    1
    26    22    21    1
    27    21    20    1
    28    97    87   am
    29    18    15    1
    30    18    19    1
    31    87    86    1
    32    16    15    1
    33   108   109    2
    34    20    19    1
    35   110   109    1
    36    32    31    1
    37   109   111    1
    38    86    89    1
    39    86    85    1
    40    29    30    1
    41    29    28    1
    42    27    28    1
    43    27    24    1
    44    89    90    1
    45    23    24    1
    46    60    59    1
    47    31    30    2
    48    31    33    1
    49    85    81   am
    50    84    83    1
    51    26    25    2
    52    81    82    2
    53    81    80    1
    54    24    25    1
    55    41    40   ar
    56    74    73    1
    57    80    83    1
    58    80    79    1
    59    90    92   ar
    60    90    91   ar
    61    59    58    1
    62    92    94   ar
    63    42    40   ar
    64    40    39    1
    65    58    57    1
    66    73    70    1
    67    91    93   ar
    68    50    49   ar
    69    77    76    1
    70    77    78    2
    71    94    95   ar
    72    75    76    1
    73    75    71   am
    74    69    70    1
    75    69    63   am
    76    38    39    1
    77    38    35    1
    78    70    71    1
    79    71    72    2
    80    57    56    1
    81    65    62    1
    82    65    66    1
    83    49    51   ar
    84    49    48    1
    85    93    95   ar
    86    62    63    1
    87    62    61    1
    88    95    96    1
    89    63    64    2
    90    56    53    1
    91    37    36    2
    92    34    35    1
    93    35    36    1
    94    67    66    1
    95    68    66    1
    96    48    47    1
    97    47    44    1
    98    53    52    1
    99    53    54    1
   100    55    54    2
   101    43    44    1
   102    44    45    1
   103    46    45    2
