@<TRIPOS>MOLECULE
tmp/3dg7C00.pdb
 148 137 0 0 0
SMALL
GASTEIGER

@<TRIPOS>ATOM
      1  N         13.7630   54.6430  -16.3050 N.3    21  PHE21      -0.1241
      2  CA        13.4920   53.2360  -16.0310 C.3    21  PHE21       0.1605
      3  C         12.0530   52.8980  -16.4220 C.2    21  PHE21       0.2264
      4  O         11.2940   53.7780  -16.8410 O.2    21  PHE21      -0.2867
      5  CB        13.7650   52.9260  -14.5520 C.3    21  PHE21       0.0534
      6  CG        13.2920   53.9970  -13.6080 C.ar   21  PHE21      -0.0203
      7  CD1       12.0300   53.9240  -13.0200 C.ar   21  PHE21      -0.0042
      8  CD2       14.0970   55.1010  -13.3330 C.ar   21  PHE21      -0.0042
      9  CE1       11.5740   54.9370  -12.1730 C.ar   21  PHE21      -0.0003
     10  CE2       13.6510   56.1190  -12.4880 C.ar   21  PHE21      -0.0003
     11  CZ        12.3870   56.0360  -11.9080 C.ar   21  PHE21      -0.0000
     12  N          9.1880   52.0750  -14.7270 N.3    23  SER23      -0.1217
     13  CA         8.0700   52.7040  -14.0280 C.3    23  SER23       0.1889
     14  C          8.0310   54.2350  -14.0380 C.2    23  SER23       0.2288
     15  O          7.0120   54.8350  -13.6830 O.2    23  SER23      -0.2866
     16  CB         8.0210   52.2000  -12.5790 C.3    23  SER23       0.2089
     17  OG         9.2420   52.4560  -11.9090 O.3    23  SER23      -0.2183
     18  N          8.3460   59.3500   -4.5660 N.3    51  ARG51      -0.1245
     19  CA         8.3570   58.4810   -5.7340 C.3    51  ARG51       0.1563
     20  C          6.9210   58.0340   -5.9890 C.2    51  ARG51       0.2260
     21  O          6.5080   56.9390   -5.5930 O.2    51  ARG51      -0.2867
     22  CB         9.2710   57.2800   -5.4780 C.3    51  ARG51       0.0307
     23  CG        10.7250   57.6590   -5.1670 C.3    51  ARG51       0.0489
     24  CD        11.4320   58.2220   -6.3910 C.3    51  ARG51       0.2205
     25  NE        12.7910   58.6800   -6.1030 N.pl3  51  ARG51      -0.0865
     26  CZ        13.1500   59.9570   -5.9830 C.cat  51  ARG51       0.5346
     27  NH1       12.2500   60.9260   -6.1190 N.pl3  51  ARG51       0.1354
     28  NH2       14.4200   60.2710   -5.7580 N.pl3  51  ARG51       0.1354
     29  N          5.4830   56.9160   -8.5440 N.3    53  PHE53      -0.1227
     30  CA         5.4350   55.6910   -9.3260 C.3    53  PHE53       0.1736
     31  C          5.9150   54.4640   -8.5440 C.2    53  PHE53       0.2596
     32  O          5.9900   53.3660   -9.1000 O.2    53  PHE53      -0.2718
     33  CB         6.2870   55.8740  -10.5800 C.3    53  PHE53       0.0547
     34  CG         7.6280   56.5090  -10.3090 C.ar   53  PHE53      -0.0202
     35  CD1        8.6030   55.8310   -9.5760 C.ar   53  PHE53      -0.0042
     36  CD2        7.9060   57.8000  -10.7640 C.ar   53  PHE53      -0.0042
     37  CE1        9.8330   56.4270   -9.2990 C.ar   53  PHE53      -0.0003
     38  CE2        9.1340   58.4070  -10.4910 C.ar   53  PHE53      -0.0003
     39  CZ        10.1010   57.7180   -9.7560 C.ar   53  PHE53      -0.0000
     40  N          6.2460   54.6570   -7.2670 N.am   54  THR54      -0.1953
     41  CA         6.7220   53.5640   -6.4180 C.3    54  THR54       0.1897
     42  C          5.9000   53.4290   -5.1370 C.2    54  THR54       0.2313
     43  O          5.4800   52.3270   -4.7790 O.2    54  THR54      -0.2863
     44  CB         8.2160   53.7550   -6.0280 C.3    54  THR54       0.1794
     45  OG1        9.0150   53.8200   -7.2140 O.3    54  THR54      -0.2208
     46  CG2        8.7070   52.5870   -5.1740 C.3    54  THR54       0.0378
     47  N         23.4330   51.6710  -10.7480 N.3   134  MET134     -0.1245
     48  CA        22.2450   51.3880  -11.5520 C.3   134  MET134      0.1570
     49  C         22.3320   52.1100  -12.8950 C.2   134  MET134      0.2261
     50  O         22.4570   53.3350  -12.9380 O.2   134  MET134     -0.2867
     51  CB        20.9740   51.8450  -10.8210 C.3   134  MET134      0.0387
     52  CG        20.8370   51.3360   -9.3900 C.3   134  MET134      0.0595
     53  SD        19.1990   51.6210   -8.6690 S.3   134  MET134     -0.1393
     54  CE        19.1530   53.4160   -8.5560 C.3   134  MET134      0.0692
     55  N         23.8090   47.1910  -11.8810 N.3   160  LYS160     -0.1245
     56  CA        22.4410   46.6920  -11.9650 C.3   160  LYS160      0.1561
     57  C         21.8460   47.3670  -13.1950 C.2   160  LYS160      0.2260
     58  O         21.6410   48.5800  -13.2010 O.2   160  LYS160     -0.2867
     59  CB        21.6190   47.0690  -10.7290 C.3   160  LYS160      0.0271
     60  CG        20.1800   46.5680  -10.8110 C.3   160  LYS160      0.0035
     61  CD        19.4170   46.7000   -9.5040 C.3   160  LYS160      0.0206
     62  CE        18.8450   48.0880   -9.3050 C.3   160  LYS160      0.1093
     63  NZ        17.9830   48.1060   -8.0950 N.3   160  LYS160     -0.1314
     64  N         19.0300   48.4620  -15.7440 N.3   162  LYS162     -0.1245
     65  CA        17.5940   48.7100  -15.7930 C.3   162  LYS162      0.1561
     66  C         17.0640   48.0920  -17.0840 C.2   162  LYS162      0.2260
     67  O         17.5820   48.3640  -18.1690 O.2   162  LYS162     -0.2867
     68  CB        17.3040   50.2130  -15.8050 C.3   162  LYS162      0.0271
     69  CG        17.5280   50.9190  -14.4810 C.3   162  LYS162      0.0035
     70  CD        16.5270   50.4450  -13.4410 C.3   162  LYS162      0.0206
     71  CE        16.6520   51.2350  -12.1550 C.3   162  LYS162      0.1093
     72  NZ        15.5920   50.8440  -11.1970 N.3   162  LYS162     -0.1314
     73  N         17.0440   44.8100  -13.1730 N.3   191  ASP191     -0.1239
     74  CA        15.8560   45.3130  -12.4960 C.3   191  ASP191      0.1674
     75  C         14.8960   45.7960  -13.5890 C.2   191  ASP191      0.2266
     76  O         15.1980   46.7470  -14.3140 O.2   191  ASP191     -0.2867
     77  CB        16.2530   46.4790  -11.5790 C.3   191  ASP191      0.1410
     78  CG        15.1300   46.9280  -10.6700 C.2   191  ASP191      0.3668
     79  OD1       13.9500   46.6830  -10.9970 O.co2 191  ASP191     -0.2456
     80  OD2       15.4330   47.5510   -9.6280 O.co2 191  ASP191     -0.2456
     81  N         11.6840   46.8420  -13.0330 N.3   193  ASN193     -0.1240
     82  CA        10.6850   47.7660  -12.5070 C.3   193  ASN193      0.1653
     83  C          9.2630   47.4930  -12.9970 C.2   193  ASN193      0.2266
     84  O          8.5430   48.4120  -13.3970 O.2   193  ASN193     -0.2867
     85  CB        11.0820   49.2120  -12.8210 C.3   193  ASN193      0.1155
     86  CG        12.2130   49.7020  -11.9400 C.2   193  ASN193      0.2627
     87  OD1       13.3130   49.9780  -12.4160 O.2   193  ASN193     -0.2716
     88  ND2       11.9480   49.8010  -10.6400 N.am  193  ASN193     -0.0877
     89  N         15.5070   41.4090  -10.5470 N.3   217  GLU217     -0.1245
     90  CA        14.7160   42.2600   -9.6600 C.3   217  GLU217      0.1567
     91  C         13.4520   42.8140  -10.3050 C.2   217  GLU217      0.2260
     92  O         13.5130   43.4570  -11.3570 O.2   217  GLU217     -0.2867
     93  CB        15.5790   43.4230   -9.1510 C.3   217  GLU217      0.0388
     94  CG        14.8970   44.3170   -8.1190 C.3   217  GLU217      0.1160
     95  CD        15.8600   45.2910   -7.4640 C.2   217  GLU217      0.3649
     96  OE1       17.0610   44.9630   -7.3650 O.co2 217  GLU217     -0.2457
     97  OE2       15.4120   46.3730   -7.0290 O.co2 217  GLU217     -0.2457
     98  N         11.2530   44.4270   -4.5200 N.3   242  ASP242     -0.1225
     99  CA        11.6380   45.7840   -4.1370 C.3   242  ASP242      0.1805
    100  C         10.3910   46.6070   -3.8230 C.2   242  ASP242      0.2597
    101  O          9.9470   46.6600   -2.6730 O.2   242  ASP242     -0.2718
    102  CB        12.4420   46.4150   -5.2920 C.3   242  ASP242      0.1424
    103  CG        12.8270   47.8720   -5.0360 C.2   242  ASP242      0.3668
    104  OD1       12.4840   48.4200   -3.9740 O.co2 242  ASP242     -0.2456
    105  OD2       13.4820   48.4680   -5.9160 O.co2 242  ASP242     -0.2456
    106  N          9.8050   47.2270   -4.8420 N.am  243  GLU243     -0.1979
    107  CA         8.6130   48.0350   -4.6150 C.3   243  GLU243      0.1602
    108  C          7.4280   47.2370   -4.0730 C.2   243  GLU243      0.2287
    109  O          6.5110   47.8120   -3.4830 O.2   243  GLU243     -0.2864
    110  CB         8.2000   48.7690   -5.8980 C.3   243  GLU243      0.0415
    111  CG         8.1090   47.9010   -7.1390 C.3   243  GLU243      0.1163
    112  CD         9.3370   48.0280   -8.0220 C.2   243  GLU243      0.3649
    113  OE1        9.1700   48.2740   -9.2390 O.co2 243  GLU243     -0.2457
    114  OE2       10.4650   47.8790   -7.5070 O.co2 243  GLU243     -0.2457
    115  N         15.7150   49.1790    1.4790 N.3   266  LYS266     -0.1245
    116  CA        16.0150   50.5660    1.1330 C.3   266  LYS266      0.1561
    117  C         15.7080   51.4320    2.3380 C.2   266  LYS266      0.2260
    118  O         14.5660   51.5100    2.7940 O.2   266  LYS266     -0.2867
    119  CB        15.1940   51.0200   -0.0760 C.3   266  LYS266      0.0271
    120  CG        15.5990   50.3380   -1.3780 C.3   266  LYS266      0.0035
    121  CD        14.8640   50.9220   -2.5770 C.3   266  LYS266      0.0206
    122  CE        15.2580   50.2260   -3.8710 C.3   266  LYS266      0.1093
    123  NZ        14.6690   50.9120   -5.0680 N.3   266  LYS266     -0.1314
    124  N         18.8410   51.2910   -3.9250 N.3   293  ASN293     -0.1225
    125  CA        18.9140   52.7410   -4.0850 C.3   293  ASN293      0.1785
    126  C         17.5420   53.2570   -4.5150 C.2   293  ASN293      0.2597
    127  O         16.9330   52.7170   -5.4310 O.2   293  ASN293     -0.2718
    128  CB        19.9660   53.0850   -5.1460 C.3   293  ASN293      0.1169
    129  CG        20.3230   54.5630   -5.1670 C.2   293  ASN293      0.2627
    130  OD1       19.5100   55.4040   -5.5480 O.2   293  ASN293     -0.2716
    131  ND2       21.5470   54.8840   -4.7550 N.am  293  ASN293     -0.0877
    132  N         17.0580   54.2930   -3.8360 N.am  294  GLN294     -0.1965
    133  CA        15.7570   54.8900   -4.1310 C.3   294  GLN294      0.1733
    134  C         15.9840   56.1270   -5.0090 C.2   294  GLN294      0.2616
    135  O         15.1590   57.0460   -5.0300 O.2   294  GLN294     -0.2715
    136  CB        15.0900   55.3090   -2.8130 C.3   294  GLN294      0.0408
    137  CG        13.5860   55.4870   -2.8850 C.3   294  GLN294      0.0908
    138  CD        12.8500   54.1660   -2.8130 C.2   294  GLN294      0.2608
    139  OE1       12.6950   53.5790   -1.7360 O.2   294  GLN294     -0.2717
    140  NE2       12.4020   53.6850   -3.9570 N.am  294  GLN294     -0.0878
    141  N         17.0930   56.1200   -5.7480 N.am  295  ILE295     -0.1977
    142  CA        17.5150   57.2470   -6.5810 C.3   295  ILE295      0.1596
    143  C         17.7800   58.3440   -5.5520 C.2   295  ILE295      0.2287
    144  O         17.3110   59.4790   -5.6620 O.2   295  ILE295     -0.2864
    145  CB        16.4320   57.7000   -7.5810 C.3   295  ILE295      0.0276
    146  CG1       15.9280   56.5010   -8.3880 C.3   295  ILE295      0.0022
    147  CG2       17.0300   58.7100   -8.5550 C.3   295  ILE295      0.0022
    148  CD1       14.7760   56.8320   -9.3120 C.3   295  ILE295      0.0001
@<TRIPOS>BOND
     1    67    66    2
     2    66    65    1
     3     4     3    2
     4     3     2    1
     5     1     2    1
     6     2     5    1
     7    68    65    1
     8    68    69    1
     9    65    64    1
    10    12    13    1
    11     5     6    1
    12    69    70    1
    13    76    75    2
    14    14    13    1
    15    14    15    2
    16    13    16    1
    17     6     8   ar
    18     6     7   ar
    19    75    74    1
    20    70    71    1
    21    84    83    2
    22     8    10   ar
    23    58    57    2
    24    57    56    1
    25    73    74    1
    26    81    82    1
    27     7     9   ar
    28    83    82    1
    29    50    49    2
    30    49    48    1
    31    85    82    1
    32    85    86    1
    33    16    17    1
    34    74    77    1
    35    10    11   ar
    36    87    86    2
    37     9    11   ar
    38    71    72    1
    39    56    55    1
    40    56    59    1
    41    86    88   am
    42    77    78    1
    43    48    51    1
    44    48    47    1
    45    92    91    2
    46    79    78   ar
    47    51    52    1
    48    60    59    1
    49    60    61    1
    50    36    38   ar
    51    36    34   ar
    52    78    80   ar
    53    33    34    1
    54    33    30    1
    55    89    90    1
    56    38    39   ar
    57    34    35   ar
    58    91    90    1
    59    39    37   ar
    60    90    93    1
    61    35    37   ar
    62    61    62    1
    63    52    53    1
    64    30    29    1
    65    30    31    1
    66   148   146    1
    67    62    63    1
    68   113   112   ar
    69    93    94    1
    70    32    31    2
    71    53    54    1
    72   147   145    1
    73    31    40   am
    74   146   145    1
    75    94    95    1
    76   112   114   ar
    77   112   111    1
    78   145   142    1
    79    95    96   ar
    80    95    97   ar
    81    40    41    1
    82    45    44    1
    83   111   110    1
    84   142   141    1
    85   142   143    1
    86    41    44    1
    87    41    42    1
    88    24    25    1
    89    24    23    1
    90    27    26    1
    91    25    26    2
    92    44    46    1
    93    20    19    1
    94    20    21    2
    95    26    28    1
    96   105   103   ar
    97   110   107    1
    98   141   134   am
    99    19    22    1
   100    19    18    1
   101   144   143    2
   102   130   129    2
   103    22    23    1
   104   127   126    2
   105   102   103    1
   106   102    99    1
   107   129   128    1
   108   129   131   am
   109   128   125    1
   110    42    43    2
   111   123   122    1
   112   103   104   ar
   113   135   134    2
   114   134   133    1
   115   106   107    1
   116   106   100   am
   117   107   108    1
   118    98    99    1
   119   126   125    1
   120   126   132   am
   121    99   100    1
   122   133   132    1
   123   133   136    1
   124   125   124    1
   125   108   109    2
   126   140   138   am
   127   122   121    1
   128   100   101    2
   129   137   136    1
   130   137   138    1
   131   138   139    2
   132   121   120    1
   133   120   119    1
   134   119   116    1
   135   116   115    1
   136   116   117    1
   137   117   118    2
