@<TRIPOS>MOLECULE
tmp/3dg8A00.pdb
 160 152 0 0 0
SMALL
GASTEIGER

@<TRIPOS>ATOM
      1  N         33.0850   -0.3840   56.6810 N.3    14  ILE14      -0.1231
      2  CA        32.4520    0.6020   55.8240 C.3    14  ILE14       0.1692
      3  C         32.5850    1.9300   56.5320 C.2    14  ILE14       0.2592
      4  O         32.4010    2.0180   57.7470 O.2    14  ILE14      -0.2718
      5  CB        30.9590    0.2900   55.5730 C.3    14  ILE14       0.0266
      6  CG1       30.4010    1.2940   54.5670 C.3    14  ILE14       0.0019
      7  CG2       30.1680    0.3450   56.8810 C.3    14  ILE14       0.0020
      8  CD1       29.0320    0.9510   54.0640 C.3    14  ILE14       0.0001
      9  N         32.9210    2.9650   55.7760 N.am   15  CYS15      -0.1956
     10  CA        33.0940    4.2860   56.3550 C.3    15  CYS15       0.1843
     11  C         32.8940    5.3920   55.3360 C.2    15  CYS15       0.2625
     12  O         32.7740    5.1380   54.1350 O.2    15  CYS15      -0.2714
     13  CB        34.5000    4.4150   56.9470 C.3    15  CYS15       0.0997
     14  SG        35.8400    4.4470   55.7050 S.3    15  CYS15      -0.0797
     15  N         32.8640    6.6200   55.8470 N.am   16  ALA16      -0.1977
     16  CA        32.7210    7.8270   55.0430 C.3    16  ALA16       0.1597
     17  C         33.7430    8.8280   55.5990 C.2    16  ALA16       0.2287
     18  O         33.7900    9.0680   56.8050 O.2    16  ALA16      -0.2864
     19  CB        31.2960    8.3820   55.1660 C.3    16  ALA16       0.0319
     20  N         36.5980   11.4610   60.2240 N.3    40  LEU40      -0.1245
     21  CA        35.5030   10.5810   60.6100 C.3    40  LEU40       0.1561
     22  C         34.3720   11.2720   61.3400 C.2    40  LEU40       0.2260
     23  O         33.2050   11.0920   60.9960 O.2    40  LEU40      -0.2867
     24  CB        36.0030    9.4460   61.4920 C.3    40  LEU40       0.0270
     25  CG        36.5640    8.2110   60.8030 C.3    40  LEU40       0.0019
     26  CD1       36.7980    7.1280   61.8560 C.3    40  LEU40       0.0001
     27  CD2       35.5990    7.7210   59.7390 C.3    40  LEU40       0.0001
     28  N         29.8810   13.3040   66.9420 N.3    45  VAL45      -0.1231
     29  CA        28.9510   13.1400   65.8260 C.3    45  VAL45       0.1692
     30  C         29.6480   13.3280   64.4770 C.2    45  VAL45       0.2591
     31  O         30.8770   13.4010   64.4110 O.2    45  VAL45      -0.2718
     32  CB        27.7660   14.1330   65.9330 C.3    45  VAL45       0.0266
     33  CG1       26.8770   13.7570   67.1060 C.3    45  VAL45       0.0020
     34  CG2       28.2860   15.5450   66.1090 C.3    45  VAL45       0.0020
     35  N         28.8650   13.3980   63.4030 N.am   46  LEU46      -0.1980
     36  CA        29.4260   13.5790   62.0660 C.3    46  LEU46       0.1596
     37  C         29.8750   15.0130   61.7990 C.2    46  LEU46       0.2287
     38  O         29.2830   15.9680   62.3030 O.2    46  LEU46      -0.2864
     39  CB        28.4070   13.1690   61.0040 C.3    46  LEU46       0.0297
     40  CG        28.2030   11.6690   60.8220 C.3    46  LEU46       0.0022
     41  CD1       27.0400   11.4020   59.8890 C.3    46  LEU46       0.0001
     42  CD2       29.4830   11.0710   60.2770 C.3    46  LEU46       0.0001
     43  N         29.6480   16.5630   59.0480 N.3    48  TRP48      -0.1241
     44  CA        28.6560   17.1590   58.1580 C.3    48  TRP48       0.1605
     45  C         27.2260   16.9670   58.6760 C.2    48  TRP48       0.2264
     46  O         26.9680   16.0660   59.4700 O.2    48  TRP48      -0.2867
     47  CB        28.8110   16.5660   56.7480 C.3    48  TRP48       0.0550
     48  CG        28.8370   15.0480   56.7070 C.ar   48  TRP48       0.0003
     49  CD1       27.7590   14.2060   56.6380 C.ar   48  TRP48       0.0946
     50  CD2       29.9990   14.2050   56.7580 C.ar   48  TRP48       0.0152
     51  NE1       28.1780   12.8950   56.6410 N.ar   48  TRP48      -0.2442
     52  CE2       29.5460   12.8650   56.7130 C.ar   48  TRP48       0.0810
     53  CE3       31.3790   14.4500   56.8360 C.ar   48  TRP48       0.0012
     54  CZ2       30.4240   11.7760   56.7470 C.ar   48  TRP48       0.0191
     55  CZ3       32.2510   13.3650   56.8700 C.ar   48  TRP48       0.0001
     56  CH2       31.7690   12.0460   56.8230 C.ar   48  TRP48       0.0015
     57  N         24.9820    9.2210   50.9300 N.3    54  ASP54      -0.1225
     58  CA        25.8850    8.3160   51.6310 C.3    54  ASP54       0.1805
     59  C         25.0920    7.4080   52.5730 C.2    54  ASP54       0.2597
     60  O         25.4660    6.2560   52.7970 O.2    54  ASP54      -0.2718
     61  CB        26.9320    9.0850   52.4330 C.3    54  ASP54       0.1424
     62  CG        27.7580    8.1710   53.3210 C.2    54  ASP54       0.3668
     63  OD1       28.4020    7.2350   52.8030 O.co2  54  ASP54      -0.2456
     64  OD2       27.7560    8.3850   54.5470 O.co2  54  ASP54      -0.2456
     65  N         23.9970    7.9310   53.1210 N.am   55  MET55      -0.1979
     66  CA        23.1470    7.1520   54.0160 C.3    55  MET55       0.1605
     67  C         22.4510    6.0500   53.2330 C.2    55  MET55       0.2287
     68  O         22.4110    4.8970   53.6520 O.2    55  MET55      -0.2864
     69  CB        22.1080    8.0560   54.6910 C.3    55  MET55       0.0413
     70  CG        22.6490    8.8070   55.9080 C.3    55  MET55       0.0598
     71  SD        21.4540    9.9320   56.6990 S.3    55  MET55      -0.1393
     72  CE        22.4630   11.4570   56.8700 C.3    55  MET55       0.0692
     73  N         23.4350    4.7210   50.5320 N.3    57  TYR57      -0.1227
     74  CA        24.4680    3.7590   50.1630 C.3    57  TYR57       0.1736
     75  C         24.8410    2.8960   51.3630 C.2    57  TYR57       0.2595
     76  O         24.9860    1.6780   51.2480 O.2    57  TYR57      -0.2718
     77  CB        25.7270    4.4780   49.6770 C.3    57  TYR57       0.0548
     78  CG        26.8530    3.5360   49.2920 C.ar   57  TYR57      -0.0200
     79  CD1       26.8190    2.8450   48.0780 C.ar   57  TYR57      -0.0009
     80  CD2       27.9530    3.3420   50.1330 C.ar   57  TYR57      -0.0009
     81  CE1       27.8480    1.9920   47.7000 C.ar   57  TYR57       0.0417
     82  CE2       28.9880    2.4830   49.7650 C.ar   57  TYR57       0.0417
     83  CZ        28.9260    1.8140   48.5420 C.ar   57  TYR57       0.1957
     84  OH        29.9410    0.9680   48.1530 O.3    57  TYR57      -0.2866
     85  N         25.0230    3.5430   52.5090 N.am   58  PHE58      -0.1976
     86  CA        25.3740    2.8400   53.7330 C.3    58  PHE58       0.1639
     87  C         24.3080    1.7970   54.0650 C.2    58  PHE58       0.2290
     88  O         24.6220    0.6610   54.4060 O.2    58  PHE58      -0.2864
     89  CB        25.5030    3.8270   54.8980 C.3    58  PHE58       0.0560
     90  CG        25.6460    3.1610   56.2290 C.ar   58  PHE58      -0.0200
     91  CD1       26.8620    2.5910   56.6060 C.ar   58  PHE58      -0.0042
     92  CD2       24.5510    3.0480   57.0850 C.ar   58  PHE58      -0.0042
     93  CE1       26.9930    1.9110   57.8150 C.ar   58  PHE58      -0.0003
     94  CE2       24.6640    2.3730   58.2950 C.ar   58  PHE58      -0.0003
     95  CZ        25.8950    1.7980   58.6640 C.ar   58  PHE58      -0.0000
     96  N         29.7410   -1.9180   66.2610 N.3    94  MET94      -0.1245
     97  CA        30.1410   -0.5480   66.4980 C.3    94  MET94       0.1570
     98  C         30.6690   -0.2820   67.9020 C.2    94  MET94       0.2261
     99  O         30.3220   -0.9810   68.8580 O.2    94  MET94      -0.2867
    100  CB        28.9740    0.3920   66.1530 C.3    94  MET94       0.0387
    101  CG        27.6870    0.1460   66.9090 C.3    94  MET94       0.0595
    102  SD        26.1970    0.6960   65.9870 S.3    94  MET94      -0.1393
    103  CE        25.3710   -0.8580   65.7600 C.3    94  MET94       0.0692
    104  N         30.3370    5.2110   69.0990 N.3    98  ASN98      -0.1240
    105  CA        29.6630    5.2090   67.8220 C.3    98  ASN98       0.1653
    106  C         28.1620    4.9890   68.0630 C.2    98  ASN98       0.2266
    107  O         27.3160    5.6590   67.4650 O.2    98  ASN98      -0.2867
    108  CB        30.2090    4.0880   66.9450 C.3    98  ASN98       0.1155
    109  CG        29.7950    4.2410   65.5010 C.2    98  ASN98       0.2627
    110  OD1       29.5730    3.2610   64.7870 O.2    98  ASN98      -0.2716
    111  ND2       29.6970    5.4800   65.0580 N.am   98  ASN98      -0.0877
    112  N         26.1050    7.9490   69.5380 N.3   101  SER101     -0.1202
    113  CA        25.9840    9.0710   68.6190 C.3   101  SER101      0.2020
    114  C         24.7910    8.8860   67.6970 C.2   101  SER101      0.2618
    115  O         24.4750    9.7590   66.8940 O.2   101  SER101     -0.2717
    116  CB        27.2460    9.2030   67.7760 C.3   101  SER101      0.2103
    117  OG        27.3410    8.1100   66.8840 O.3   101  SER101     -0.2182
    118  N         24.1330    7.7430   67.8060 N.am  102  ILE102     -0.1979
    119  CA        22.9810    7.4630   66.9680 C.3   102  ILE102      0.1595
    120  C         21.6880    7.9540   67.6050 C.2   102  ILE102      0.2287
    121  O         21.4790    7.8070   68.8080 O.2   102  ILE102     -0.2864
    122  CB        22.8410    5.9570   66.7090 C.3   102  ILE102      0.0276
    123  CG1       24.1160    5.4190   66.0660 C.3   102  ILE102      0.0022
    124  CG2       21.6550    5.6900   65.7990 C.3   102  ILE102      0.0022
    125  CD1       24.0800    3.9170   65.8280 C.3   102  ILE102      0.0001
    126  N         19.9120   -0.4210   64.5380 N.3   109  LEU109     -0.1245
    127  CA        19.7960   -0.3560   63.0920 C.3   109  LEU109      0.1561
    128  C         18.8260   -1.4090   62.5700 C.2   109  LEU109      0.2260
    129  O         19.0120   -2.6050   62.7780 O.2   109  LEU109     -0.2867
    130  CB        21.1600   -0.5510   62.4310 C.3   109  LEU109      0.0270
    131  CG        22.2820    0.4400   62.7580 C.3   109  LEU109      0.0019
    132  CD1       23.3430    0.3440   61.6730 C.3   109  LEU109      0.0001
    133  CD2       21.7500    1.8510   62.8210 C.3   109  LEU109      0.0001
    134  N         30.9720   -0.9680   61.5240 N.3   154  LEU154     -0.1245
    135  CA        30.4600    0.3810   61.3080 C.3   154  LEU154      0.1561
    136  C         31.3880    1.4350   61.8280 C.2   154  LEU154      0.2260
    137  O         31.3100    2.5950   61.4310 O.2   154  LEU154     -0.2867
    138  CB        29.0830    0.5530   61.9360 C.3   154  LEU154      0.0270
    139  CG        28.1010   -0.5100   61.4650 C.3   154  LEU154      0.0019
    140  CD1       26.7220   -0.1140   61.9290 C.3   154  LEU154      0.0001
    141  CD2       28.1650   -0.6670   59.9470 C.3   154  LEU154      0.0001
    142  N         37.9240    0.9740   64.2690 N.3   160  TYR160     -0.1241
    143  CA        38.5220    0.7850   62.9480 C.3   160  TYR160      0.1605
    144  C         39.9930    0.4170   63.0920 C.2   160  TYR160      0.2264
    145  O         40.4650   -0.5750   62.5250 O.2   160  TYR160     -0.2867
    146  CB        38.4260    2.0630   62.1120 C.3   160  TYR160      0.0534
    147  CG        37.0680    2.3770   61.5280 C.ar  160  TYR160     -0.0201
    148  CD1       36.3860    1.4430   60.7520 C.ar  160  TYR160     -0.0009
    149  CD2       36.5070    3.6470   61.6770 C.ar  160  TYR160     -0.0009
    150  CE1       35.1750    1.7660   60.1220 C.ar  160  TYR160      0.0417
    151  CE2       35.2940    3.9870   61.0550 C.ar  160  TYR160      0.0417
    152  CZ        34.6380    3.0390   60.2770 C.ar  160  TYR160      0.1957
    153  OH        33.4530    3.3660   59.6550 O.3   160  TYR160     -0.2866
    154  N         33.7080    5.7960   51.6130 N.3   175  THR175     -0.1218
    155  CA        32.9970    6.8740   50.9470 C.3   175  THR175      0.1862
    156  C         33.8740    8.1040   51.0620 C.2   175  THR175      0.2287
    157  O         34.2750    8.4790   52.1650 O.2   175  THR175     -0.2866
    158  CB        31.6460    7.1860   51.6150 C.3   175  THR175      0.1770
    159  OG1       30.7960    6.0360   51.5310 O.3   175  THR175     -0.2211
    160  CG2       30.9820    8.3760   50.9200 C.3   175  THR175      0.0375
@<TRIPOS>BOND
     1    81    79   ar
     2    81    83   ar
     3    79    78   ar
     4    84    83    1
     5    83    82   ar
     6    78    77    1
     7    78    80   ar
     8    77    74    1
     9    82    80   ar
    10    74    73    1
    11    74    75    1
    12   160   158    1
    13    57    58    1
    14   155   156    1
    15   155   154    1
    16   155   158    1
    17   156   157    2
    18    76    75    2
    19    75    85   am
    20   159   158    1
    21    58    61    1
    22    58    59    1
    23    61    62    1
    24    85    86    1
    25    59    60    2
    26    59    65   am
    27    63    62   ar
    28    65    66    1
    29    67    68    2
    30    67    66    1
    31    62    64   ar
    32    86    87    1
    33    86    89    1
    34    66    69    1
    35     8     6    1
    36    87    88    2
    37    12    11    2
    38     6     5    1
    39    69    70    1
    40    89    90    1
    41    16    19    1
    42    16    17    1
    43    16    15    1
    44    11    15   am
    45    11    10    1
    46     5     2    1
    47     5     7    1
    48    17    18    2
    49    14    13    1
    50     9    10    1
    51     9     3   am
    52     2     3    1
    53     2     1    1
    54    70    71    1
    55    90    91   ar
    56    90    92   ar
    57    10    13    1
    58     3     4    2
    59    91    93   ar
    60    49    51   ar
    61    49    48   ar
    62    51    52   ar
    63    71    72    1
    64    48    47    1
    65    48    50   ar
    66    52    54   ar
    67    52    50   ar
    68    54    56   ar
    69    47    44    1
    70    50    53   ar
    71    56    55   ar
    72    53    55   ar
    73    92    94   ar
    74    93    95   ar
    75    44    45    1
    76    44    43    1
    77    94    95   ar
    78    45    46    2
    79   153   152    1
    80    27    25    1
    81    41    40    1
    82   141   139    1
    83   150   152   ar
    84   150   148   ar
    85    20    21    1
    86   152   151   ar
    87    42    40    1
    88    21    22    1
    89    21    24    1
    90   148   147   ar
    91    25    24    1
    92    25    26    1
    93    40    39    1
    94    23    22    2
    95    39    36    1
    96   151   149   ar
    97   135   134    1
    98   135   136    1
    99   135   138    1
   100   137   136    2
   101   139   140    1
   102   139   138    1
   103   147   149   ar
   104   147   146    1
   105   132   131    1
   106    37    36    1
   107    37    38    2
   108    36    35    1
   109   146   143    1
   110   130   131    1
   111   130   127    1
   112   145   144    2
   113   128   129    2
   114   128   127    1
   115   131   133    1
   116   143   144    1
   117   143   142    1
   118   127   126    1
   119    35    30   am
   120    31    30    2
   121    30    29    1
   122   110   109    2
   123   111   109   am
   124   109   108    1
   125   103   102    1
   126   124   122    1
   127    29    32    1
   128    29    28    1
   129   125   123    1
   130    32    34    1
   131    32    33    1
   132   102   101    1
   133   123   122    1
   134   100    97    1
   135   100   101    1
   136    96    97    1
   137    97    98    1
   138   122   119    1
   139   117   116    1
   140   115   114    2
   141   108   105    1
   142   119   120    1
   143   119   118    1
   144   107   106    2
   145   120   121    2
   146   114   118   am
   147   114   113    1
   148   116   113    1
   149   105   106    1
   150   105   104    1
   151    98    99    2
   152   113   112    1
