@<TRIPOS>MOLECULE
tmp/3dgaB00.pdb
 166 159 0 0 0
SMALL
GASTEIGER

@<TRIPOS>ATOM
      1  N         24.4390  -29.1380   13.2450 N.3    13  ILE13      -0.1231
      2  CA        25.1230  -27.9670   12.7120 C.3    13  ILE13       0.1692
      3  C         25.0970  -28.0470   11.1800 C.2    13  ILE13       0.2592
      4  O         25.2790  -29.1260   10.6080 O.2    13  ILE13      -0.2718
      5  CB        26.5870  -27.8970   13.2420 C.3    13  ILE13       0.0266
      6  CG1       27.2020  -26.5410   12.9100 C.3    13  ILE13       0.0019
      7  CG2       27.4290  -29.0160   12.6400 C.3    13  ILE13       0.0020
      8  CD1       28.6190  -26.3990   13.4060 C.3    13  ILE13       0.0001
      9  N         24.8560  -26.9180   10.5160 N.am   14  CYS14      -0.1956
     10  CA        24.7940  -26.9210    9.0580 C.3    14  CYS14       0.1843
     11  C         25.0580  -25.5630    8.4340 C.2    14  CYS14       0.2625
     12  O         25.2320  -24.5660    9.1350 O.2    14  CYS14      -0.2714
     13  CB        23.4190  -27.4160    8.5840 C.3    14  CYS14       0.0997
     14  SG        22.0230  -26.3110    8.9710 S.3    14  CYS14      -0.0797
     15  N         25.0830  -25.5500    7.1020 N.am   15  ALA15      -0.1977
     16  CA        25.2930  -24.3410    6.3060 C.3    15  ALA15       0.1597
     17  C         24.3140  -24.3780    5.1320 C.2    15  ALA15       0.2287
     18  O         24.2280  -25.3760    4.4240 O.2    15  ALA15      -0.2864
     19  CB        26.7270  -24.2870    5.7910 C.3    15  ALA15       0.0319
     20  N         29.3400  -29.6170   -2.1540 N.3    45  LEU45      -0.1245
     21  CA        28.7590  -28.3600   -1.6830 C.3    45  LEU45       0.1561
     22  C         28.2990  -27.4270   -2.8040 C.2    45  LEU45       0.2260
     23  O         28.9760  -27.2940   -3.8240 O.2    45  LEU45      -0.2867
     24  CB        29.7620  -27.6220   -0.7970 C.3    45  LEU45       0.0270
     25  CG        29.9940  -28.1900    0.6050 C.3    45  LEU45       0.0019
     26  CD1       30.9940  -27.3270    1.3630 C.3    45  LEU45       0.0001
     27  CD2       28.6690  -28.2270    1.3490 C.3    45  LEU45       0.0001
     28  N         28.1050  -24.0680   -2.9720 N.3    47  TRP47      -0.1241
     29  CA        29.1490  -23.0750   -3.1540 C.3    47  TRP47       0.1605
     30  C         30.4040  -23.9190   -3.2330 C.2    47  TRP47       0.2264
     31  O         30.4110  -25.0690   -2.7920 O.2    47  TRP47      -0.2867
     32  CB        29.2050  -22.1320   -1.9540 C.3    47  TRP47       0.0550
     33  CG        29.2220  -22.8300   -0.6230 C.ar   47  TRP47       0.0003
     34  CD1       30.3180  -23.1390    0.1330 C.ar   47  TRP47       0.0946
     35  CD2       28.0860  -23.3100    0.1040 C.ar   47  TRP47       0.0152
     36  NE1       29.9340  -23.7810    1.2850 N.ar   47  TRP47      -0.2442
     37  CE2       28.5690  -23.9020    1.2920 C.ar   47  TRP47       0.0810
     38  CE3       26.7060  -23.3030   -0.1360 C.ar   47  TRP47       0.0012
     39  CZ2       27.7190  -24.4780    2.2440 C.ar   47  TRP47       0.0191
     40  CZ3       25.8600  -23.8770    0.8110 C.ar   47  TRP47       0.0001
     41  CH2       26.3720  -24.4580    1.9850 C.ar   47  TRP47       0.0015
     42  N         33.0840  -20.3200    7.0330 N.3    53  ASP53      -0.1225
     43  CA        32.1190  -21.2770    7.5460 C.3    53  ASP53       0.1805
     44  C         32.8850  -22.5200    7.9570 C.2    53  ASP53       0.2597
     45  O         32.5020  -23.2270    8.8850 O.2    53  ASP53      -0.2718
     46  CB        31.1000  -21.6440    6.4730 C.3    53  ASP53       0.1424
     47  CG        30.2100  -22.7940    6.8920 C.2    53  ASP53       0.3668
     48  OD1       29.5260  -22.6800    7.9310 O.co2  53  ASP53      -0.2456
     49  OD2       30.1970  -23.8160    6.1790 O.co2  53  ASP53      -0.2456
     50  N         33.9810  -22.7660    7.2480 N.am   54  MET54      -0.1979
     51  CA        34.8450  -23.9140    7.4930 C.3    54  MET54       0.1605
     52  C         35.5700  -23.7610    8.8250 C.2    54  MET54       0.2287
     53  O         35.7380  -24.7240    9.5760 O.2    54  MET54      -0.2864
     54  CB        35.8700  -24.0290    6.3640 C.3    54  MET54       0.0413
     55  CG        36.6400  -25.3270    6.3500 C.3    54  MET54       0.0598
     56  SD        35.5130  -26.7130    6.1890 S.3    54  MET54      -0.1393
     57  CE        34.6630  -26.2850    4.6050 C.3    54  MET54       0.0692
     58  N         34.5330  -21.8770   11.3170 N.3    56  TYR56      -0.1227
     59  CA        33.4840  -21.9390   12.3310 C.3    56  TYR56       0.1736
     60  C         33.2020  -23.3900   12.6990 C.2    56  TYR56       0.2595
     61  O         33.1880  -23.7560   13.8760 O.2    56  TYR56      -0.2718
     62  CB        32.2110  -21.2970   11.7830 C.3    56  TYR56       0.0548
     63  CG        31.0590  -21.1930   12.7610 C.ar   56  TYR56      -0.0200
     64  CD1       31.0710  -20.2510   13.7840 C.ar   56  TYR56      -0.0009
     65  CD2       29.9250  -21.9890   12.6170 C.ar   56  TYR56      -0.0009
     66  CE1       29.9810  -20.0930   14.6360 C.ar   56  TYR56       0.0417
     67  CE2       28.8270  -21.8370   13.4630 C.ar   56  TYR56       0.0417
     68  CZ        28.8600  -20.8830   14.4670 C.ar   56  TYR56       0.1957
     69  OH        27.7580  -20.6850   15.2700 O.3    56  TYR56      -0.2866
     70  N         32.9770  -24.2090   11.6770 N.am   57  PHE57      -0.1976
     71  CA        32.6940  -25.6280   11.8580 C.3    57  PHE57       0.1639
     72  C         33.7290  -26.2900   12.7600 C.2    57  PHE57       0.2290
     73  O         33.3810  -26.9020   13.7690 O.2    57  PHE57      -0.2864
     74  CB        32.6900  -26.3360   10.5090 C.3    57  PHE57       0.0560
     75  CG        32.2550  -27.7650   10.5840 C.ar   57  PHE57      -0.0200
     76  CD1       30.9200  -28.0840   10.8010 C.ar   57  PHE57      -0.0042
     77  CD2       33.1760  -28.7940   10.4340 C.ar   57  PHE57      -0.0042
     78  CE1       30.5060  -29.4050   10.8690 C.ar   57  PHE57      -0.0003
     79  CE2       32.7750  -30.1250   10.5010 C.ar   57  PHE57      -0.0003
     80  CZ        31.4350  -30.4310   10.7170 C.ar   57  PHE57      -0.0000
     81  N         27.4890  -38.4420   10.6340 N.3    97  MET97      -0.1245
     82  CA        27.2170  -38.0750    9.2490 C.3    97  MET97       0.1570
     83  C         26.7400  -39.2710    8.4200 C.2    97  MET97       0.2261
     84  O         26.8720  -40.4220    8.8370 O.2    97  MET97      -0.2867
     85  CB        28.4880  -37.5040    8.6270 C.3    97  MET97       0.0387
     86  CG        29.5920  -38.5310    8.5230 C.3    97  MET97       0.0595
     87  SD        31.2000  -37.8510    8.1490 S.3    97  MET97      -0.1393
     88  CE        31.9360  -37.8200    9.8120 C.3    97  MET97       0.0692
     89  N         27.9020  -38.2670    2.8370 N.3   101  SER101     -0.1217
     90  CA        28.6320  -37.1380    3.3960 C.3   101  SER101      0.1889
     91  C         30.0440  -37.5460    3.7770 C.2   101  SER101      0.2288
     92  O         30.9610  -36.7310    3.7210 O.2   101  SER101     -0.2866
     93  CB        27.9080  -36.5870    4.6240 C.3   101  SER101      0.2089
     94  OG        26.7100  -35.9300    4.2530 O.3   101  SER101     -0.2183
     95  N         33.9670  -36.3610    1.7600 N.3   105  ILE105     -0.1231
     96  CA        34.9970  -35.7360    2.5590 C.3   105  ILE105      0.1678
     97  C         36.3500  -36.0780    1.9550 C.2   105  ILE105      0.2434
     98  O         36.6330  -37.2410    1.6550 O.2   105  ILE105     -0.2733
     99  CB        34.9400  -36.2350    4.0140 C.3   105  ILE105      0.0265
    100  CG1       33.5910  -35.8530    4.6290 C.3   105  ILE105      0.0019
    101  CG2       36.0860  -35.6410    4.8190 C.3   105  ILE105      0.0020
    102  CD1       33.3410  -36.4540    5.9880 C.3   105  ILE105      0.0001
    103  N         37.1990  -35.0610    1.7420 N.am  106  PRO106     -0.2729
    104  CA        38.5310  -35.2720    1.1700 C.3   106  PRO106      0.1401
    105  C         39.4250  -36.1700    2.0300 C.2   106  PRO106      0.2269
    106  O         39.5650  -35.9710    3.2350 O.2   106  PRO106     -0.2865
    107  CB        39.0770  -33.8470    1.0220 C.3   106  PRO106      0.0296
    108  CG        38.3260  -33.0660    2.0640 C.3   106  PRO106      0.0237
    109  CD        36.9350  -33.6240    1.9340 C.3   106  PRO106      0.0939
    110  N         41.8740  -35.1560    4.8650 N.3   109  PHE109     -0.1241
    111  CA        41.1360  -34.6610    5.9950 C.3   109  PHE109      0.1605
    112  C         40.1500  -35.7210    6.4380 C.2   109  PHE109      0.2264
    113  O         39.1260  -35.3820    7.0670 O.2   109  PHE109     -0.2867
    114  CB        40.4520  -33.3320    5.5860 C.3   109  PHE109      0.0534
    115  CG        41.3770  -32.3740    4.8840 C.ar  109  PHE109     -0.0203
    116  CD1       42.4920  -31.8790    5.5390 C.ar  109  PHE109     -0.0042
    117  CD2       41.1590  -32.0140    3.5500 C.ar  109  PHE109     -0.0042
    118  CE1       43.3970  -31.0360    4.8890 C.ar  109  PHE109     -0.0003
    119  CE2       42.0650  -31.1670    2.8850 C.ar  109  PHE109     -0.0003
    120  CZ        43.1840  -30.6830    3.5580 C.ar  109  PHE109     -0.0000
    121  N         37.8120  -36.7440   10.5400 N.3   112  LEU112     -0.1245
    122  CA        37.8160  -35.3980   11.0620 C.3   112  LEU112      0.1561
    123  C         38.5870  -35.4190   12.3660 C.2   112  LEU112      0.2260
    124  O         38.1920  -36.0940   13.3160 O.2   112  LEU112     -0.2867
    125  CB        36.3850  -34.9360   11.2450 C.3   112  LEU112      0.0270
    126  CG        35.5270  -34.9690    9.9670 C.3   112  LEU112      0.0019
    127  CD1       34.1320  -34.4810   10.2580 C.3   112  LEU112      0.0001
    128  CD2       36.1760  -34.1030    8.8980 C.3   112  LEU112      0.0001
    129  N         37.9900  -35.7060   16.7660 N.3   115  ARG115     -0.1245
    130  CA        36.5630  -35.9480   16.8980 C.3   115  ARG115      0.1563
    131  C         36.1810  -37.4160   16.7610 C.2   115  ARG115      0.2260
    132  O         36.6980  -38.1300   15.9050 O.2   115  ARG115     -0.2867
    133  CB        35.8100  -35.1110   15.8590 C.3   115  ARG115      0.0307
    134  CG        35.7180  -33.6370   16.2230 C.3   115  ARG115      0.0489
    135  CD        35.4510  -32.7500   15.0130 C.3   115  ARG115      0.2205
    136  NE        36.6360  -32.6130   14.1710 N.pl3 115  ARG115     -0.0865
    137  CZ        36.7640  -31.7210   13.1930 C.cat 115  ARG115      0.5346
    138  NH1       35.7760  -30.8770   12.9270 N.pl3 115  ARG115      0.1354
    139  NH2       37.8850  -31.6650   12.4860 N.pl3 115  ARG115      0.1354
    140  N         26.4000  -33.6240   11.9220 N.3   157  ILE157     -0.1245
    141  CA        26.9390  -32.8330   10.8260 C.3   157  ILE157      0.1561
    142  C         26.2260  -33.2390    9.5310 C.2   157  ILE157      0.2260
    143  O         26.6380  -32.8900    8.4230 O.2   157  ILE157     -0.2867
    144  CB        28.4630  -32.9990   10.7330 C.3   157  ILE157      0.0252
    145  CG1       28.8200  -34.4350   10.3770 C.3   157  ILE157      0.0019
    146  CG2       29.1010  -32.6450   12.0640 C.3   157  ILE157      0.0019
    147  CD1       30.3120  -34.6640   10.2270 C.3   157  ILE157      0.0001
    148  N         19.7160  -35.1310    8.5040 N.3   163  TYR163     -0.1241
    149  CA        19.0790  -33.9940    9.1660 C.3   163  TYR163      0.1605
    150  C         17.5870  -34.2930    9.2990 C.2   163  TYR163      0.2264
    151  O         16.9850  -34.1120   10.3570 O.2   163  TYR163     -0.2867
    152  CB        19.2560  -32.7090    8.3430 C.3   163  TYR163      0.0534
    153  CG        20.6600  -32.1360    8.3040 C.ar  163  TYR163     -0.0201
    154  CD1       21.3870  -31.9270    9.4750 C.ar  163  TYR163     -0.0009
    155  CD2       21.2470  -31.7690    7.0930 C.ar  163  TYR163     -0.0009
    156  CE1       22.6640  -31.3680    9.4380 C.ar  163  TYR163      0.0417
    157  CE2       22.5240  -31.2080    7.0460 C.ar  163  TYR163      0.0417
    158  CZ        23.2260  -31.0130    8.2210 C.ar  163  TYR163      0.1957
    159  OH        24.4940  -30.4770    8.1750 O.3   163  TYR163     -0.2866
    160  N         24.4100  -21.9210    9.5300 N.3   178  THR178     -0.1218
    161  CA        25.2210  -20.9160    8.8680 C.3   178  THR178      0.1862
    162  C         24.4010  -20.4350    7.6860 C.2   178  THR178      0.2287
    163  O         23.9370  -21.2470    6.8860 O.2   178  THR178     -0.2866
    164  CB        26.5490  -21.5000    8.3260 C.3   178  THR178      0.1770
    165  OG1       27.3350  -22.0120    9.4100 O.3   178  THR178     -0.2211
    166  CG2       27.3400  -20.4130    7.5910 C.3   178  THR178      0.0375
@<TRIPOS>BOND
     1    23    22    2
     2    30    29    1
     3    30    31    2
     4    29    28    1
     5    29    32    1
     6    22    21    1
     7    20    21    1
     8    32    33    1
     9    21    24    1
    10    24    25    1
    11    33    35   ar
    12    33    34   ar
    13    38    35   ar
    14    38    40   ar
    15    35    37   ar
    16    34    36   ar
    17    25    27    1
    18    25    26    1
    19    40    41   ar
    20   107   104    1
    21   107   108    1
    22   104   103    1
    23   104   105    1
    24    36    37   ar
    25    37    39   ar
    26    98    97    2
    27   103   109    1
    28   103    97   am
    29    95    96    1
    30   109   108    1
    31    97    96    1
    32    41    39   ar
    33   105   106    2
    34    96    99    1
    35    89    90    1
    36   119   117   ar
    37   119   120   ar
    38    90    91    1
    39    90    93    1
    40   117   115   ar
    41   120   118   ar
    42    92    91    2
    43    99   100    1
    44    99   101    1
    45    94    93    1
    46    18    17    2
    47    57    56    1
    48   100   102    1
    49   110   111    1
    50   115   116   ar
    51   115   114    1
    52   118   116   ar
    53    17    16    1
    54   114   111    1
    55    19    16    1
    56   111   112    1
    57    49    47   ar
    58    56    55    1
    59    16    15    1
    60    55    54    1
    61    54    51    1
    62   112   113    2
    63    46    47    1
    64    46    43    1
    65   163   162    2
    66    47    48   ar
    67    42    43    1
    68   157   155   ar
    69   157   158   ar
    70   155   153   ar
    71    15    11   am
    72    50    51    1
    73    50    44   am
    74    51    52    1
    75    43    44    1
    76   166   164    1
    77   162   161    1
    78    44    45    2
    79    87    86    1
    80    87    88    1
    81   159   158    1
    82   158   156   ar
    83   153   152    1
    84   153   154   ar
    85   164   161    1
    86   164   165    1
    87   152   149    1
    88    83    84    2
    89    83    82    1
    90   143   142    2
    91    11    10    1
    92    11    12    2
    93   148   149    1
    94    86    85    1
    95    13    14    1
    96    13    10    1
    97    85    82    1
    98    52    53    2
    99   161   160    1
   100   128   126    1
   101    10     9    1
   102   149   150    1
   103    82    81    1
   104   150   151    2
   105   156   154   ar
   106   142   141    1
   107   126   127    1
   108   126   125    1
   109   147   145    1
   110   145   144    1
   111    77    79   ar
   112    77    75   ar
   113    79    80   ar
   114    74    75    1
   115    74    71    1
   116     9     3   am
   117   121   122    1
   118    75    76   ar
   119     4     3    2
   120    80    78   ar
   121   144   141    1
   122   144   146    1
   123    76    78   ar
   124   141   140    1
   125   122   125    1
   126   122   123    1
   127     3     2    1
   128    58    59    1
   129    70    71    1
   130    70    60   am
   131    62    59    1
   132    62    63    1
   133    71    72    1
   134    59    60    1
   135   123   124    2
   136   139   137    1
   137    65    63   ar
   138    65    67   ar
   139     7     5    1
   140    60    61    2
   141     2     5    1
   142     2     1    1
   143    72    73    2
   144    63    64   ar
   145     6     5    1
   146     6     8    1
   147   138   137    1
   148   137   136    2
   149    67    68   ar
   150    64    66   ar
   151   136   135    1
   152    68    66   ar
   153    68    69    1
   154   135   134    1
   155   133   134    1
   156   133   130    1
   157   132   131    2
   158   131   130    1
   159   129   130    1
