@<TRIPOS>MOLECULE
tmp/3dgcB00.pdb
 90 87 0 0 0
SMALL
GASTEIGER

@<TRIPOS>ATOM
      1  N         48.7960   11.3830   38.8690 N.3   149  VAL149     -0.1231
      2  CA        49.5140   10.1240   38.9850 C.3   149  VAL149      0.1692
      3  C         50.6790   10.3500   39.9450 C.2   149  VAL149      0.2592
      4  O         51.0150    9.4810   40.7480 O.2   149  VAL149     -0.2718
      5  CB        50.0290    9.6560   37.6100 C.3   149  VAL149      0.0266
      6  CG1       48.8690    9.5490   36.6360 C.3   149  VAL149      0.0020
      7  CG2       51.0610   10.6260   37.0850 C.3   149  VAL149      0.0020
      8  N         51.2700   11.5410   39.8530 N.am  150  ASN150     -0.1974
      9  CA        52.3870   11.9570   40.6960 C.3   150  ASN150      0.1688
     10  C         52.6270   13.4640   40.5520 C.2   150  ASN150      0.2292
     11  O         52.1300   14.0930   39.6130 O.2   150  ASN150     -0.2864
     12  CB        53.6580   11.1850   40.3330 C.3   150  ASN150      0.1181
     13  CG        53.9710   11.2370   38.8620 C.2   150  ASN150      0.2629
     14  OD1       54.1130   12.3140   38.2840 O.2   150  ASN150     -0.2716
     15  ND2       54.0810   10.0600   38.2560 N.am  150  ASN150     -0.0877
     16  N         54.5220   15.2220   39.2090 N.3   152  THR152     -0.1203
     17  CA        54.8730   15.7220   37.8810 C.3   152  THR152      0.1994
     18  C         54.2820   14.9640   36.6970 C.2   152  THR152      0.2617
     19  O         55.0020   14.3250   35.9250 O.2   152  THR152     -0.2717
     20  CB        56.3980   15.7870   37.7030 C.3   152  THR152      0.1784
     21  OG1       56.9820   14.5500   38.1340 O.3   152  THR152     -0.2211
     22  CG2       56.9770   16.9500   38.5030 C.3   152  THR152      0.0376
     23  N         52.9640   15.0560   36.5650 N.am  153  TYR153     -0.1975
     24  CA        52.2110   14.4340   35.4770 C.3   153  TYR153      0.1639
     25  C         50.7530   14.3120   35.8960 C.2   153  TYR153      0.2290
     26  O         50.4170   13.5480   36.8020 O.2   153  TYR153     -0.2864
     27  CB        52.7580   13.0460   35.1250 C.3   153  TYR153      0.0560
     28  CG        52.2110   12.5070   33.8190 C.ar  153  TYR153     -0.0198
     29  CD1       52.4960   13.1400   32.6070 C.ar  153  TYR153     -0.0009
     30  CD2       51.3870   11.3820   33.7960 C.ar  153  TYR153     -0.0009
     31  CE1       51.9720   12.6670   31.4060 C.ar  153  TYR153      0.0417
     32  CE2       50.8560   10.9000   32.6030 C.ar  153  TYR153      0.0417
     33  CZ        51.1510   11.5460   31.4110 C.ar  153  TYR153      0.1957
     34  OH        50.6220   11.0750   30.2290 O.3   153  TYR153     -0.2866
     35  N         46.5920   14.2070   34.2650 N.3   155  MET155     -0.1245
     36  CA        45.7170   14.1100   33.1060 C.3   155  MET155      0.1570
     37  C         44.4860   14.9680   33.3570 C.2   155  MET155      0.2261
     38  O         44.0760   15.1410   34.5040 O.2   155  MET155     -0.2867
     39  CB        45.3110   12.6580   32.8680 C.3   155  MET155      0.0387
     40  CG        46.4630   11.7600   32.4680 C.3   155  MET155      0.0595
     41  SD        45.8660   10.0970   32.1710 S.3   155  MET155     -0.1393
     42  CE        44.7740   10.4150   30.7400 C.3   155  MET155      0.0692
     43  N         41.9460    7.0130   30.0290 N.3   167  PHE167     -0.1227
     44  CA        42.5610    5.7960   29.4980 C.3   167  PHE167      0.1736
     45  C         44.0940    5.8430   29.5580 C.2   167  PHE167      0.2596
     46  O         44.6920    6.8910   29.8220 O.2   167  PHE167     -0.2718
     47  CB        42.1370    5.5600   28.0410 C.3   167  PHE167      0.0547
     48  CG        40.6630    5.3920   27.8530 C.ar  167  PHE167     -0.0202
     49  CD1       39.9090    6.4130   27.2820 C.ar  167  PHE167     -0.0042
     50  CD2       40.0320    4.1990   28.2070 C.ar  167  PHE167     -0.0042
     51  CE1       38.5440    6.2480   27.0550 C.ar  167  PHE167     -0.0003
     52  CE2       38.6640    4.0150   27.9890 C.ar  167  PHE167     -0.0003
     53  CZ        37.9150    5.0420   27.4090 C.ar  167  PHE167     -0.0000
     54  N         44.7170    4.6940   29.2950 N.am  168  GLY168     -0.1942
     55  CA        46.1630    4.6050   29.3070 C.3   168  GLY168      0.2014
     56  C         46.7420    4.5300   30.7070 C.2   168  GLY168      0.2639
     57  O         47.7740    5.1370   30.9820 O.2   168  GLY168     -0.2714
     58  N         46.0920    3.7790   31.5890 N.am  169  LEU169     -0.1963
     59  CA        46.5540    3.6440   32.9710 C.3   169  LEU169      0.1728
     60  C         47.1600    2.2750   33.2740 C.2   169  LEU169      0.2616
     61  O         46.7270    1.2580   32.7170 O.2   169  LEU169     -0.2715
     62  CB        45.3830    3.8980   33.9270 C.3   169  LEU169      0.0311
     63  CG        45.0380    5.3410   34.2970 C.3   169  LEU169      0.0022
     64  CD1       45.3250    6.2860   33.1450 C.3   169  LEU169      0.0001
     65  CD2       43.5820    5.3980   34.7140 C.3   169  LEU169      0.0001
     66  N         48.1610    2.2460   34.1560 N.am  170  THR170     -0.1951
     67  CA        48.7870    0.9770   34.5410 C.3   170  THR170      0.1897
     68  C         47.9620    0.3440   35.6650 C.2   170  THR170      0.2313
     69  O         47.5940    1.0110   36.6350 O.2   170  THR170     -0.2863
     70  CB        50.2530    1.1580   35.0270 C.3   170  THR170      0.1794
     71  OG1       50.2840    2.0300   36.1590 O.3   170  THR170     -0.2208
     72  CG2       51.1200    1.7300   33.9200 C.3   170  THR170      0.0378
     73  N         47.3570    0.3310   40.2840 N.3   173  THR173     -0.1218
     74  CA        48.0800    1.5580   40.6190 C.3   173  THR173      0.1862
     75  C         47.1330    2.5640   41.2700 C.2   173  THR173      0.2287
     76  O         45.9090    2.4930   41.1010 O.2   173  THR173     -0.2866
     77  CB        48.7080    2.2140   39.3660 C.3   173  THR173      0.1770
     78  OG1       49.6920    1.3340   38.8050 O.3   173  THR173     -0.2211
     79  CG2       49.3660    3.5400   39.7290 C.3   173  THR173      0.0375
     80  N         45.7270    6.4730   41.9200 N.3   175  PHE175     -0.1241
     81  CA        45.5820    7.7750   41.2840 C.3   175  PHE175      0.1605
     82  C         44.6700    8.6740   42.1090 C.2   175  PHE175      0.2264
     83  O         43.8050    8.1920   42.8470 O.2   175  PHE175     -0.2867
     84  CB        44.9940    7.6220   39.8740 C.3   175  PHE175      0.0534
     85  CG        45.8080    6.7400   38.9600 C.ar  175  PHE175     -0.0203
     86  CD1       45.6550    5.3550   38.9830 C.ar  175  PHE175     -0.0042
     87  CD2       46.7340    7.2980   38.0810 C.ar  175  PHE175     -0.0042
     88  CE1       46.4120    4.5400   38.1430 C.ar  175  PHE175     -0.0003
     89  CE2       47.4980    6.4910   37.2380 C.ar  175  PHE175     -0.0003
     90  CZ        47.3340    5.1070   37.2690 C.ar  175  PHE175     -0.0000
@<TRIPOS>BOND
     1    51    49   ar
     2    51    53   ar
     3    49    48   ar
     4    53    52   ar
     5    48    47    1
     6    48    50   ar
     7    52    50   ar
     8    47    44    1
     9    54    55    1
    10    54    45   am
    11    55    56    1
    12    44    45    1
    13    44    43    1
    14    45    46    2
    15    34    33    1
    16    56    57    2
    17    56    58   am
    18    42    41    1
    19    31    33   ar
    20    31    29   ar
    21    33    32   ar
    22    58    59    1
    23    41    40    1
    24    40    39    1
    25    32    30   ar
    26    29    28   ar
    27    61    60    2
    28    39    36    1
    29    59    60    1
    30    59    62    1
    31    36    37    1
    32    36    35    1
    33    64    63    1
    34    60    66   am
    35    37    38    2
    36    30    28   ar
    37    28    27    1
    38    72    70    1
    39    62    63    1
    40    66    67    1
    41    63    65    1
    42    67    70    1
    43    67    68    1
    44    70    71    1
    45    27    24    1
    46    24    25    1
    47    24    23    1
    48    68    69    2
    49    25    26    2
    50    19    18    2
    51    23    18   am
    52     6     5    1
    53    18    17    1
    54     7     5    1
    55    89    90   ar
    56    89    87   ar
    57    90    88   ar
    58     5     2    1
    59    20    17    1
    60    20    21    1
    61    20    22    1
    62    17    16    1
    63    87    85   ar
    64    88    86   ar
    65    15    13   am
    66    14    13    2
    67    78    77    1
    68    13    12    1
    69     1     2    1
    70    85    86   ar
    71    85    84    1
    72     2     3    1
    73    77    79    1
    74    77    74    1
    75    11    10    2
    76     8     3   am
    77     8     9    1
    78    84    81    1
    79     3     4    2
    80    73    74    1
    81    12     9    1
    82    10     9    1
    83    74    75    1
    84    76    75    2
    85    81    80    1
    86    81    82    1
    87    82    83    2
