@<TRIPOS>MOLECULE
tmp/3dgoA00.pdb
 126 124 0 0 0
SMALL
GASTEIGER

@<TRIPOS>ATOM
      1  N        -30.9280   22.4930  -14.1200 N.3    28  ASP28      -0.1239
      2  CA       -30.7130   21.2140  -13.5720 C.3    28  ASP28       0.1674
      3  C        -29.2680   21.0820  -13.0650 C.2    28  ASP28       0.2266
      4  O        -28.3860   21.8430  -13.4540 O.2    28  ASP28      -0.2867
      5  CB       -30.9700   20.1460  -14.6090 C.3    28  ASP28       0.1410
      6  CG       -31.3640   18.8010  -13.9590 C.2    28  ASP28       0.3668
      7  OD1      -31.4860   18.6990  -12.7200 O.co2  28  ASP28      -0.2456
      8  OD2      -31.5870   17.8400  -14.6880 O.co2  28  ASP28      -0.2456
      9  N        -26.4020   18.0400  -10.7150 N.3    30  LYS30      -0.1245
     10  CA       -26.2260   16.7990   -9.9310 C.3    30  LYS30       0.1561
     11  C        -24.9140   16.8670   -9.1680 C.2    30  LYS30       0.2260
     12  O        -24.0260   17.6440   -9.5540 O.2    30  LYS30      -0.2867
     13  CB       -26.4810   15.4850  -10.7330 C.3    30  LYS30       0.0271
     14  CG       -25.4450   14.9080  -11.7210 C.3    30  LYS30       0.0035
     15  CD       -26.0560   13.6340  -12.3180 C.3    30  LYS30       0.0206
     16  CE       -25.0510   12.4750  -12.6390 C.3    30  LYS30       0.1093
     17  NZ       -24.5710   12.2980  -14.1340 N.3    30  LYS30      -0.1314
     18  N        -21.4510   14.9980   -8.0440 N.3    32  LYS32      -0.1245
     19  CA       -20.5930   14.1600   -8.9550 C.3    32  LYS32       0.1561
     20  C        -19.3120   13.8380   -8.1370 C.2    32  LYS32       0.2260
     21  O        -18.1940   14.2720   -8.5150 O.2    32  LYS32      -0.2867
     22  CB       -20.2720   15.0030  -10.2620 C.3    32  LYS32       0.0271
     23  CG       -19.6060   14.3510  -11.5070 C.3    32  LYS32       0.0035
     24  CD       -20.6610   13.6960  -12.4420 C.3    32  LYS32       0.0206
     25  CE       -20.0550   12.6460  -13.3910 C.3    32  LYS32       0.1093
     26  NZ       -21.1890   11.8160  -13.9210 N.3    32  LYS32      -0.1314
     27  N        -22.0790   19.4850  -10.7220 N.3    37  ARG37      -0.1245
     28  CA       -22.2600   19.7100  -12.1520 C.3    37  ARG37       0.1563
     29  C        -23.5330   20.5710  -12.2770 C.2    37  ARG37       0.2260
     30  O        -24.6190   20.0670  -11.9420 O.2    37  ARG37      -0.2867
     31  CB       -22.5000   18.3580  -12.7960 C.3    37  ARG37       0.0307
     32  CG       -22.9900   18.3470  -14.2730 C.3    37  ARG37       0.0489
     33  CD       -22.6010   17.0490  -14.9400 C.3    37  ARG37       0.2205
     34  NE       -21.1380   16.9870  -14.9810 N.pl3  37  ARG37      -0.0865
     35  CZ       -20.4320   15.9800  -15.4990 C.cat  37  ARG37       0.5346
     36  NH1      -21.0640   14.9380  -16.0060 N.pl3  37  ARG37       0.1354
     37  NH2      -19.1110   15.9950  -15.4980 N.pl3  37  ARG37       0.1354
     38  N        -26.0600   21.8670  -14.9760 N.3    39  PHE39      -0.1227
     39  CA       -26.3820   21.7110  -16.4370 C.3    39  PHE39       0.1736
     40  C        -26.8470   23.0120  -17.0440 C.2    39  PHE39       0.2595
     41  O        -27.2570   23.9110  -16.3230 O.2    39  PHE39      -0.2718
     42  CB       -27.4160   20.6460  -16.6580 C.3    39  PHE39       0.0547
     43  CG       -26.9440   19.2510  -16.2800 C.ar   39  PHE39      -0.0202
     44  CD1      -26.1660   18.4860  -17.1650 C.ar   39  PHE39      -0.0042
     45  CD2      -27.3320   18.6780  -15.0980 C.ar   39  PHE39      -0.0042
     46  CE1      -25.7390   17.1540  -16.8570 C.ar   39  PHE39      -0.0003
     47  CE2      -26.8580   17.3310  -14.7480 C.ar   39  PHE39      -0.0003
     48  CZ       -26.0700   16.5980  -15.6460 C.ar   39  PHE39      -0.0000
     49  N        -26.7920   23.1540  -18.3530 N.am   40  ASN40      -0.1960
     50  CA       -27.1540   24.4390  -18.9210 C.3    40  ASN40       0.1819
     51  C        -28.6460   24.8200  -18.8690 C.2    40  ASN40       0.2621
     52  O        -29.0020   26.0370  -18.8590 O.2    40  ASN40      -0.2715
     53  CB       -26.5990   24.5420  -20.3390 C.3    40  ASN40       0.1195
     54  CG       -25.0690   24.5430  -20.3670 C.2    40  ASN40       0.2630
     55  OD1      -24.3750   24.7870  -19.3440 O.2    40  ASN40      -0.2716
     56  ND2      -24.5330   24.2690  -21.5280 N.am   40  ASN40      -0.0877
     57  N        -29.4950   23.7780  -18.8300 N.am   41  MET41      -0.1963
     58  CA       -30.9160   23.9330  -18.8640 C.3    41  MET41       0.1736
     59  C        -31.6370   23.2800  -17.6960 C.2    41  MET41       0.2617
     60  O        -31.1090   22.3270  -17.0730 O.2    41  MET41      -0.2715
     61  CB       -31.4480   23.3360  -20.1450 C.3    41  MET41       0.0427
     62  CG       -31.0200   24.1070  -21.3640 C.3    41  MET41       0.0599
     63  SD       -31.7960   23.4070  -22.8850 S.3    41  MET41      -0.1393
     64  CE       -30.9170   21.8370  -23.1450 C.3    41  MET41       0.0692
     65  N        -32.8510   23.7680  -17.4100 N.am   42  CYS42      -0.1954
     66  CA       -33.7180   23.0720  -16.4410 C.3    42  CYS42       0.1843
     67  C        -34.1110   21.6870  -17.0490 C.2    42  CYS42       0.2625
     68  O        -33.8370   21.4060  -18.2560 O.2    42  CYS42      -0.2714
     69  CB       -34.9560   23.9440  -16.0680 C.3    42  CYS42       0.0997
     70  SG       -36.0230   24.2030  -17.4530 S.3    42  CYS42      -0.0797
     71  N        -34.7280   20.8020  -16.2640 N.am   43  LYS43      -0.1977
     72  CA       -35.0310   19.4980  -16.8660 C.3    43  LYS43       0.1596
     73  C        -36.0950   19.5880  -18.0120 C.2    43  LYS43       0.2287
     74  O        -35.9800   18.8530  -19.0290 O.2    43  LYS43      -0.2864
     75  CB       -35.3600   18.4040  -15.8290 C.3    43  LYS43       0.0298
     76  CG       -35.8430   17.1300  -16.5090 C.3    43  LYS43       0.0038
     77  CD       -35.5950   15.8850  -15.7310 C.3    43  LYS43       0.0206
     78  CE       -34.0720   15.7640  -15.4380 C.3    43  LYS43       0.1093
     79  NZ       -33.2330   15.5490  -16.6560 N.3    43  LYS43      -0.1314
     80  N        -34.5350   20.8190  -21.2080 N.3    46  PHE46      -0.1241
     81  CA       -33.6590   19.7640  -21.7200 C.3    46  PHE46       0.1605
     82  C        -34.4730   18.6420  -22.4260 C.2    46  PHE46       0.2264
     83  O        -34.2130   18.2990  -23.6130 O.2    46  PHE46      -0.2867
     84  CB       -32.7610   19.1920  -20.6210 C.3    46  PHE46       0.0534
     85  CG       -31.8810   18.0860  -21.0990 C.ar   46  PHE46      -0.0203
     86  CD1      -30.7880   18.3590  -21.9640 C.ar   46  PHE46      -0.0042
     87  CD2      -32.1430   16.7520  -20.7240 C.ar   46  PHE46      -0.0042
     88  CE1      -29.9460   17.3230  -22.4500 C.ar   46  PHE46      -0.0003
     89  CE2      -31.2940   15.6910  -21.1970 C.ar   46  PHE46      -0.0003
     90  CZ       -30.1950   15.9920  -22.0830 C.ar   46  PHE46      -0.0000
     91  N        -27.9400   23.7810  -26.7220 N.3    57  TYR57      -0.1227
     92  CA       -27.7510   24.2240  -25.3330 C.3    57  TYR57       0.1736
     93  C        -27.2750   23.1260  -24.3760 C.2    57  TYR57       0.2595
     94  O        -27.2090   23.3560  -23.1670 O.2    57  TYR57      -0.2718
     95  CB       -29.0080   24.9350  -24.8050 C.3    57  TYR57       0.0548
     96  CG       -29.3440   26.1800  -25.6250 C.ar   57  TYR57      -0.0200
     97  CD1      -28.5600   27.3440  -25.5330 C.ar   57  TYR57      -0.0009
     98  CD2      -30.3920   26.1620  -26.5520 C.ar   57  TYR57      -0.0009
     99  CE1      -28.8460   28.4680  -26.3120 C.ar   57  TYR57       0.0417
    100  CE2      -30.7160   27.2850  -27.3380 C.ar   57  TYR57       0.0417
    101  CZ       -29.9370   28.4280  -27.2140 C.ar   57  TYR57       0.1957
    102  OH       -30.2540   29.5200  -28.0000 O.3    57  TYR57      -0.2866
    103  N        -26.9730   21.9530  -24.9330 N.am   58  HIS58      -0.1961
    104  CA       -26.5510   20.7820  -24.1930 C.3    58  HIS58       0.1787
    105  C        -25.2110   21.0210  -23.5750 C.2    58  HIS58       0.2621
    106  O        -24.3180   21.4530  -24.2570 O.2    58  HIS58      -0.2715
    107  CB       -26.4970   19.5450  -25.1270 C.3    58  HIS58       0.0785
    108  CG       -27.8600   19.0420  -25.4840 C.ar   58  HIS58       0.0821
    109  ND1      -28.0810   17.8380  -26.1150 N.ar   58  HIS58      -0.2267
    110  CD2      -29.0870   19.5900  -25.2620 C.ar   58  HIS58       0.1154
    111  CE1      -29.3830   17.6760  -26.2960 C.ar   58  HIS58       0.1986
    112  NE2      -30.0130   18.7220  -25.7810 N.ar   58  HIS58      -0.2212
    113  N        -25.0630   20.7260  -22.2850 N.am   59  GLY59      -0.1940
    114  CA       -23.7490   20.8630  -21.6380 C.3    59  GLY59       0.2014
    115  C        -23.8890   21.1480  -20.1670 C.2    59  GLY59       0.2638
    116  O        -25.0300   21.1790  -19.5990 O.2    59  GLY59      -0.2714
    117  N        -22.7280   21.3920  -19.5550 N.am   60  HIS60      -0.1973
    118  CA       -22.6610   21.5830  -18.1220 C.3    60  HIS60       0.1656
    119  C        -21.3660   22.2690  -17.7790 C.2    60  HIS60       0.2291
    120  O        -20.4810   22.4340  -18.6260 O.2    60  HIS60      -0.2864
    121  CB       -22.7220   20.2500  -17.4110 C.3    60  HIS60       0.0771
    122  CG       -21.6180   19.3300  -17.8150 C.ar   60  HIS60       0.0820
    123  ND1      -21.7020   18.5060  -18.9180 N.ar   60  HIS60      -0.2267
    124  CD2      -20.3920   19.1030  -17.2690 C.ar   60  HIS60       0.1154
    125  CE1      -20.5910   17.7910  -19.0190 C.ar   60  HIS60       0.1986
    126  NE2      -19.7860   18.1260  -18.0220 N.ar   60  HIS60      -0.2212
@<TRIPOS>BOND
     1   102   101    1
     2   100   101   ar
     3   100    98   ar
     4   101    99   ar
     5    91    92    1
     6    98    96   ar
     7    99    97   ar
     8   111   109   ar
     9   111   112   ar
    10   109   108   ar
    11   112   110   ar
    12    96    97   ar
    13    96    95    1
    14   108   110   ar
    15   108   107    1
    16    92    95    1
    17    92    93    1
    18   107   104    1
    19   103    93   am
    20   103   104    1
    21    93    94    2
    22   106   105    2
    23   104   105    1
    24    83    82    2
    25   105   113   am
    26    64    63    1
    27    63    62    1
    28    88    90   ar
    29    88    86   ar
    30    82    81    1
    31   113   114    1
    32    90    89   ar
    33    86    85   ar
    34    81    80    1
    35    81    84    1
    36   114   115    1
    37    56    54   am
    38    62    61    1
    39    89    87   ar
    40    85    87   ar
    41    85    84    1
    42    54    53    1
    43    54    55    2
    44    53    50    1
    45   115   116    2
    46   115   117   am
    47    61    58    1
    48   117   118    1
    49    74    73    2
    50   125   123   ar
    51   125   126   ar
    52    50    51    1
    53    50    49    1
    54   123   122   ar
    55    51    52    2
    56    51    57   am
    57    58    57    1
    58    58    59    1
    59   120   119    2
    60    49    40   am
    61    68    67    2
    62   118   119    1
    63   118   121    1
    64   126   124   ar
    65    73    72    1
    66   122   121    1
    67   122   124   ar
    68    59    65   am
    69    59    60    2
    70    70    69    1
    71    65    66    1
    72    44    46   ar
    73    44    43   ar
    74    67    66    1
    75    67    71   am
    76    40    39    1
    77    40    41    2
    78    72    71    1
    79    72    75    1
    80    46    48   ar
    81    42    39    1
    82    42    43    1
    83    79    78    1
    84    76    75    1
    85    76    77    1
    86    66    69    1
    87    39    38    1
    88    43    45   ar
    89    36    35    1
    90    77    78    1
    91    48    47   ar
    92    35    37    1
    93    35    34    2
    94    45    47   ar
    95    34    33    1
    96    33    32    1
    97     8     6   ar
    98     5     6    1
    99     5     2    1
   100    32    31    1
   101    17    16    1
   102     1     2    1
   103     6     7   ar
   104    26    25    1
   105     2     3    1
   106     4     3    2
   107    25    24    1
   108    31    28    1
   109    16    15    1
   110    24    23    1
   111    15    14    1
   112    29    28    1
   113    29    30    2
   114    28    27    1
   115    14    13    1
   116    23    22    1
   117    13    10    1
   118     9    10    1
   119    22    19    1
   120    10    11    1
   121    12    11    2
   122    19    20    1
   123    19    18    1
   124    21    20    2
