@<TRIPOS>MOLECULE
tmp/3dgrB01.pdb
 126 118 0 0 0
SMALL
GASTEIGER

@<TRIPOS>ATOM
      1  N         11.3930    3.7390   36.2430 N.3   173  PHE173     -0.1227
      2  CA        11.8280    2.3610   35.9390 C.3   173  PHE173      0.1736
      3  C         12.0200    2.1440   34.4400 C.2   173  PHE173      0.2596
      4  O         11.8750    1.0190   33.9370 O.2   173  PHE173     -0.2718
      5  CB        10.8080    1.3490   36.5010 C.3   173  PHE173      0.0547
      6  CG        10.8520    1.2120   38.0010 C.ar  173  PHE173     -0.0202
      7  CD1       11.9120    0.5360   38.6250 C.ar  173  PHE173     -0.0042
      8  CD2        9.8500    1.7590   38.7870 C.ar  173  PHE173     -0.0042
      9  CE1       11.9620    0.4190   40.0120 C.ar  173  PHE173     -0.0003
     10  CE2        9.8870    1.6420   40.1760 C.ar  173  PHE173     -0.0003
     11  CZ        10.9460    0.9570   40.7980 C.ar  173  PHE173     -0.0000
     12  N         12.3120    3.2330   33.7330 N.am  174  GLY174     -0.1957
     13  CA        12.3930    3.2350   32.2710 C.3   174  GLY174      0.1869
     14  C         13.6740    2.7850   31.6040 C.2   174  GLY174      0.2309
     15  O         13.7460    2.8140   30.3730 O.2   174  GLY174     -0.2863
     16  N         15.0870   -0.1370   30.7840 N.3   176  ARG176     -0.1245
     17  CA        14.9940   -1.1410   29.7260 C.3   176  ARG176      0.1563
     18  C         14.0830   -0.7260   28.5670 C.2   176  ARG176      0.2260
     19  O         14.1800   -1.2870   27.4550 O.2   176  ARG176     -0.2867
     20  CB        14.5590   -2.4850   30.3050 C.3   176  ARG176      0.0307
     21  CG        13.0610   -2.6010   30.4980 C.3   176  ARG176      0.0489
     22  CD        12.6940   -3.7660   31.4090 C.3   176  ARG176      0.2205
     23  NE        13.2450   -3.6670   32.7640 N.pl3 176  ARG176     -0.0865
     24  CZ        13.0740   -4.6080   33.6800 C.cat 176  ARG176      0.5346
     25  NH1       12.3180   -5.6810   33.3740 N.pl3 176  ARG176      0.1354
     26  NH2       13.6350   -4.4900   34.8810 N.pl3 176  ARG176      0.1354
     27  N         15.4930    4.0450   39.1900 N.3   199  ASP199     -0.1239
     28  CA        16.2610    2.8120   39.1090 C.3   199  ASP199      0.1674
     29  C         17.3390    2.8580   38.0270 C.2   199  ASP199      0.2266
     30  O         18.0240    1.8760   37.7500 O.2   199  ASP199     -0.2867
     31  CB        15.3320    1.6180   38.9200 C.3   199  ASP199      0.1410
     32  CG        15.0350    0.9250   40.2320 C.2   199  ASP199      0.3668
     33  OD1       14.9210    1.5990   41.2680 O.co2 199  ASP199     -0.2456
     34  OD2       14.9430   -0.3090   40.2350 O.co2 199  ASP199     -0.2456
     35  N         13.5810   -4.6670   45.7430 N.3   224  ALA224     -0.1231
     36  CA        12.3310   -5.0760   45.0900 C.3   224  ALA224      0.1694
     37  C         12.5370   -6.3870   44.3710 C.2   224  ALA224      0.2592
     38  O         13.6010   -6.6190   43.7740 O.2   224  ALA224     -0.2718
     39  CB        11.8550   -4.0070   44.1200 C.3   224  ALA224      0.0304
     40  N         11.5230   -7.2520   44.4680 N.am  225  ALA225     -0.1966
     41  CA        11.4200   -8.4680   43.6590 C.3   225  ALA225      0.1728
     42  C         11.0100   -8.1830   42.2270 C.2   225  ALA225      0.2616
     43  O         10.3870   -7.1460   41.9230 O.2   225  ALA225     -0.2715
     44  CB        10.4200   -9.4410   44.2900 C.3   225  ALA225      0.0334
     45  N         11.3790   -9.1060   41.3450 N.am  226  GLU226     -0.1963
     46  CA        10.8460   -9.1590   39.9960 C.3   226  GLU226      0.1733
     47  C         10.1910  -10.5260   39.8290 C.2   226  GLU226      0.2616
     48  O         10.2710  -11.3690   40.7230 O.2   226  GLU226     -0.2715
     49  CB        11.9320   -8.9280   38.9220 C.3   226  GLU226      0.0429
     50  CG        13.0680   -9.9630   38.9250 C.3   226  GLU226      0.1163
     51  CD        14.1090   -9.6920   37.8300 C.2   226  GLU226      0.3649
     52  OE1       14.6170  -10.6700   37.2180 O.co2 226  GLU226     -0.2457
     53  OE2       14.4240   -8.5040   37.5810 O.co2 226  GLU226     -0.2457
     54  N          9.5250  -10.7280   38.7000 N.am  227  HIS227     -0.1973
     55  CA         8.8940  -11.9950   38.4340 C.3   227  HIS227      0.1656
     56  C          9.8710  -13.1710   38.5030 C.2   227  HIS227      0.2291
     57  O          9.5460  -14.1950   39.0830 O.2   227  HIS227     -0.2864
     58  CB         8.1080  -11.9480   37.1280 C.3   227  HIS227      0.0771
     59  CG         6.8550  -11.1340   37.2390 C.ar  227  HIS227      0.0820
     60  ND1        6.6450   -9.9880   36.5120 N.ar  227  HIS227     -0.2267
     61  CD2        5.7640  -11.2820   38.0350 C.ar  227  HIS227      0.1154
     62  CE1        5.4700   -9.4710   36.8430 C.ar  227  HIS227      0.1986
     63  NE2        4.9060  -10.2500   37.7500 N.ar  227  HIS227     -0.2212
     64  N          9.6920   -3.8540   48.1460 N.3   255  SER255     -0.1217
     65  CA         8.6510   -4.0510   47.1430 C.3   255  SER255      0.1889
     66  C          8.5570   -5.5100   46.6760 C.2   255  SER255      0.2288
     67  O          9.5720   -6.1220   46.2800 O.2   255  SER255     -0.2866
     68  CB         8.9520   -3.1840   45.9360 C.3   255  SER255      0.2089
     69  OG         7.9930   -3.4100   44.9200 O.3   255  SER255     -0.2183
     70  N          3.1090   -5.0020   45.0900 N.3   291  ARG291     -0.1245
     71  CA         3.1240   -4.5510   43.7090 C.3   291  ARG291      0.1563
     72  C          2.2510   -5.4010   42.7490 C.2   291  ARG291      0.2260
     73  O          2.6540   -6.4880   42.3150 O.2   291  ARG291     -0.2867
     74  CB         4.5700   -4.4690   43.2180 C.3   291  ARG291      0.0307
     75  CG         4.6780   -3.8770   41.8710 C.3   291  ARG291      0.0489
     76  CD         6.1470   -3.6270   41.5010 C.3   291  ARG291      0.2205
     77  NE         6.2340   -3.8450   40.0800 N.pl3 291  ARG291     -0.0865
     78  CZ         6.9580   -4.7820   39.4830 C.cat 291  ARG291      0.5346
     79  NH1        7.7870   -5.5760   40.1520 N.pl3 291  ARG291      0.1354
     80  NH2        6.8730   -4.8610   38.1760 N.pl3 291  ARG291      0.1354
     81  N          0.8470   -5.8600   38.8940 N.3   293  ASP293     -0.1239
     82  CA         1.5650   -5.5980   37.6290 C.3   293  ASP293      0.1674
     83  C          0.7620   -6.1060   36.4300 C.2   293  ASP293      0.2266
     84  O          1.3180   -6.3560   35.3840 O.2   293  ASP293     -0.2867
     85  CB         2.9670   -6.2560   37.6590 C.3   293  ASP293      0.1410
     86  CG         3.8500   -5.7940   36.5230 C.2   293  ASP293      0.3668
     87  OD1        4.2710   -6.6600   35.7350 O.co2 293  ASP293     -0.2456
     88  OD2        4.1030   -4.5580   36.3900 O.co2 293  ASP293     -0.2456
     89  N          2.3840   -0.2930   45.2820 N.3   331  ILE331     -0.1245
     90  CA         2.8970    0.4530   44.1370 C.3   331  ILE331      0.1561
     91  C          2.3250   -0.1310   42.8640 C.2   331  ILE331      0.2260
     92  O          2.3490   -1.3350   42.6640 O.2   331  ILE331     -0.2867
     93  CB         4.4540    0.5070   44.0960 C.3   331  ILE331      0.0252
     94  CG1        4.9270    1.3830   42.9400 C.3   331  ILE331      0.0019
     95  CG2        5.0300   -0.9180   43.9710 C.3   331  ILE331      0.0019
     96  CD1        6.3710    1.8150   43.0280 C.3   331  ILE331      0.0001
     97  N          3.0950   -0.1850   39.0200 N.3   333  GLY333     -0.1210
     98  CA         4.1040    0.0710   37.9980 C.3   333  GLY333      0.1956
     99  C          3.7410   -0.3740   36.5840 C.2   333  GLY333      0.2611
    100  O          4.5510   -0.2260   35.6750 O.2   333  GLY333     -0.2717
    101  N          2.5310   -0.9080   36.3770 N.am  334  ASP334     -0.1973
    102  CA         2.1300   -1.3770   35.0500 C.3   334  ASP334      0.1709
    103  C          1.1700   -0.3770   34.3790 C.2   334  ASP334      0.2293
    104  O          0.2000    0.0830   34.9980 O.2   334  ASP334     -0.2864
    105  CB         1.4850   -2.7630   35.1770 C.3   334  ASP334      0.1436
    106  CG         0.8430   -3.2490   33.8710 C.2   334  ASP334      0.3671
    107  OD1        1.5950   -3.4570   32.9090 O.co2 334  ASP334     -0.2456
    108  OD2       -0.3990   -3.4390   33.8200 O.co2 334  ASP334     -0.2456
    109  N          5.2750    3.5990   39.6690 N.3   361  GLY361     -0.1210
    110  CA         6.5040    3.3740   38.8880 C.3   361  GLY361      0.1956
    111  C          6.1200    3.5200   37.4340 C.2   361  GLY361      0.2613
    112  O          5.0000    3.1030   37.0240 O.2   361  GLY361     -0.2717
    113  N          7.0180    4.0990   36.6370 N.am  362  SER362     -0.1938
    114  CA         6.7360    4.2720   35.2210 C.3   362  SER362      0.2055
    115  C          8.0040    4.0650   34.3990 C.2   362  SER362      0.2644
    116  O          9.1110    4.3950   34.8550 O.2   362  SER362     -0.2714
    117  CB         6.1150    5.6500   34.9700 C.3   362  SER362      0.2130
    118  OG         5.7120    5.8090   33.6230 O.3   362  SER362     -0.2179
    119  N          7.8450    3.4960   33.2120 N.am  363  GLY363     -0.1939
    120  CA         8.9930    3.2050   32.3540 C.3   363  GLY363      0.2014
    121  C          8.8850    3.8800   31.0050 C.2   363  GLY363      0.2639
    122  O          9.1830    5.0640   30.8830 O.2   363  GLY363     -0.2714
    123  N          8.4500    3.1250   29.9980 N.am  364  GLY364     -0.1954
    124  CA         8.1290    3.6660   28.6740 C.3   364  GLY364      0.1869
    125  C          7.2400    4.9020   28.7000 C.2   364  GLY364      0.2309
    126  O          7.4880    5.8660   27.9620 O.2   364  GLY364     -0.2863
@<TRIPOS>BOND
     1    19    18    2
     2   126   125    2
     3    18    17    1
     4   124   125    1
     5   124   123    1
     6    17    20    1
     7    17    16    1
     8   123   121   am
     9    20    21    1
    10    15    14    2
    11    21    22    1
    12   122   121    2
    13   121   120    1
    14    22    23    1
    15    14    13    1
    16    13    12    1
    17   120   119    1
    18    23    24    2
    19   107   106   ar
    20   119   115   am
    21    25    24    1
    22   118   117    1
    23    24    26    1
    24    12     3   am
    25   108   106   ar
    26   106   105    1
    27     4     3    2
    28   103   104    2
    29   103   102    1
    30   115   116    2
    31   115   114    1
    32     3     2    1
    33   117   114    1
    34   102   105    1
    35   102   101    1
    36   114   113    1
    37    84    83    2
    38   100    99    2
    39    87    86   ar
    40     2     1    1
    41     2     5    1
    42   101    99   am
    43    88    86   ar
    44    83    82    1
    45     5     6    1
    46    60    62   ar
    47    60    59   ar
    48    86    85    1
    49    99    98    1
    50   113   111   am
    51    62    63   ar
    52   112   111    2
    53    58    59    1
    54    58    55    1
    55    52    51   ar
    56    59    61   ar
    57   111   110    1
    58    53    51   ar
    59    82    85    1
    60    82    81    1
    61    30    29    2
    62    63    61   ar
    63    51    50    1
    64    98    97    1
    65     6     7   ar
    66     6     8   ar
    67    29    28    1
    68    80    78    1
    69    55    56    1
    70    55    54    1
    71    56    57    2
    72     7     9   ar
    73    54    47   am
    74     8    10   ar
    75   110   109    1
    76    31    28    1
    77    31    32    1
    78    49    50    1
    79    49    46    1
    80    28    27    1
    81    78    77    2
    82    78    79    1
    83    47    46    1
    84    47    48    2
    85    46    45    1
    86     9    11   ar
    87    77    76    1
    88    10    11   ar
    89    32    34   ar
    90    32    33   ar
    91    45    42   am
    92    76    75    1
    93    75    74    1
    94    43    42    2
    95    42    41    1
    96    73    72    2
    97    92    91    2
    98    72    71    1
    99    91    90    1
   100    94    96    1
   101    94    93    1
   102    74    71    1
   103    41    44    1
   104    41    40    1
   105    71    70    1
   106    38    37    2
   107    95    93    1
   108    93    90    1
   109    39    36    1
   110    90    89    1
   111    37    40   am
   112    37    36    1
   113    69    68    1
   114    36    35    1
   115    68    65    1
   116    67    66    2
   117    66    65    1
   118    65    64    1
