@<TRIPOS>MOLECULE
tmp/3dgrB00.pdb
 100 94 0 0 0
SMALL
GASTEIGER

@<TRIPOS>ATOM
      1  N         21.7290   16.7090    4.6490 N.3    10  TYR10      -0.1241
      2  CA        21.3680   17.7400    3.6890 C.3    10  TYR10       0.1605
      3  C         21.8820   19.1140    4.0720 C.2    10  TYR10       0.2264
      4  O         22.0430   19.9640    3.2080 O.2    10  TYR10      -0.2867
      5  CB        19.8670   17.7380    3.4170 C.3    10  TYR10       0.0534
      6  CG        18.9520   18.3020    4.4850 C.ar   10  TYR10      -0.0201
      7  CD1       18.3220   19.5260    4.3040 C.ar   10  TYR10      -0.0009
      8  CD2       18.6370   17.5760    5.6280 C.ar   10  TYR10      -0.0009
      9  CE1       17.4360   20.0290    5.2550 C.ar   10  TYR10       0.0417
     10  CE2       17.7760   18.0800    6.6040 C.ar   10  TYR10       0.0417
     11  CZ        17.1820   19.2970    6.4110 C.ar   10  TYR10       0.1957
     12  OH        16.3100   19.7920    7.3590 O.3    10  TYR10      -0.2866
     13  N          6.4080   25.7080   20.3110 N.3    32  ARG32      -0.1245
     14  CA         5.2940   26.3950   19.6820 C.3    32  ARG32       0.1563
     15  C          3.9660   26.1540   20.3720 C.2    32  ARG32       0.2260
     16  O          3.6590   25.0460   20.8270 O.2    32  ARG32      -0.2867
     17  CB         5.1810   26.0130   18.2160 C.3    32  ARG32       0.0307
     18  CG         6.1250   26.7510   17.3090 C.3    32  ARG32       0.0489
     19  CD         5.7930   26.5580   15.7910 C.3    32  ARG32       0.2205
     20  NE         6.0460   25.1860   15.3450 N.pl3  32  ARG32      -0.0865
     21  CZ         5.1140   24.2520   15.2270 C.cat  32  ARG32       0.5346
     22  NH1        3.8490   24.5320   15.5180 N.pl3  32  ARG32       0.1354
     23  NH2        5.4400   23.0400   14.8250 N.pl3  32  ARG32       0.1354
     24  N         21.9260   22.9710   14.3100 N.3   129  GLU129     -0.1245
     25  CA        20.5090   22.8420   14.6660 C.3   129  GLU129      0.1567
     26  C         20.2050   21.4270   15.1420 C.2   129  GLU129      0.2260
     27  O         19.5580   21.2460   16.1540 O.2   129  GLU129     -0.2867
     28  CB        19.5870   23.1670   13.4790 C.3   129  GLU129      0.0388
     29  CG        18.1430   22.6920   13.7080 C.3   129  GLU129      0.1160
     30  CD        17.1570   23.0730   12.6010 C.2   129  GLU129      0.3649
     31  OE1       17.5980   23.5650   11.5240 O.co2 129  GLU129     -0.2457
     32  OE2       15.9240   22.9080   12.8380 O.co2 129  GLU129     -0.2457
     33  N         18.6270   20.7040   18.7590 N.3   133  VAL133     -0.1245
     34  CA        17.1790   20.3390   18.7580 C.3   133  VAL133      0.1561
     35  C         16.8820   19.1110   19.6120 C.2   133  VAL133      0.2260
     36  O         15.8280   19.0070   20.2370 O.2   133  VAL133     -0.2867
     37  CB        16.5750   20.2800   17.3130 C.3   133  VAL133      0.0252
     38  CG1       15.1830   19.6210   17.2510 C.3   133  VAL133      0.0019
     39  CG2       16.4090   21.6920   16.8170 C.3   133  VAL133      0.0019
     40  N          8.8160   14.8950   19.7450 N.3   372  ARG372     -0.1245
     41  CA         9.0260   16.3110   19.5600 C.3   372  ARG372      0.1563
     42  C          7.7160   17.0620   19.2400 C.2   372  ARG372      0.2260
     43  O          7.6470   18.2760   19.3860 O.2   372  ARG372     -0.2867
     44  CB        10.0850   16.5240   18.4750 C.3   372  ARG372      0.0307
     45  CG        10.7810   17.8640   18.5030 C.3   372  ARG372      0.0489
     46  CD        11.9650   17.8780   17.5090 C.3   372  ARG372      0.2205
     47  NE        11.5390   17.5070   16.1590 N.pl3 372  ARG372     -0.0865
     48  CZ        11.3330   18.3550   15.1570 C.cat 372  ARG372      0.5346
     49  NH1       11.5090   19.6620   15.3140 N.pl3 372  ARG372      0.1354
     50  NH2       10.9350   17.8890   13.9740 N.pl3 372  ARG372      0.1354
     51  N          8.4310   21.4170   19.7250 N.3   377  CYS377     -0.1221
     52  CA         9.8100   21.9030   19.7710 C.3   377  CYS377      0.1808
     53  C         10.3650   22.1860   18.3670 C.2   377  CYS377      0.2602
     54  O         10.3790   21.3230   17.4780 O.2   377  CYS377     -0.2717
     55  CB        10.7010   20.8900   20.4840 C.3   377  CYS377      0.0970
     56  SG        10.0300   20.4610   22.1000 S.3   377  CYS377     -0.0800
     57  N         10.8600   23.3950   18.1910 N.am  378  SER378     -0.1938
     58  CA        11.1780   23.8570   16.8690 C.3   378  SER378      0.2055
     59  C         12.3220   24.8760   16.9040 C.2   378  SER378      0.2643
     60  O         12.4660   25.6420   17.8480 O.2   378  SER378     -0.2714
     61  CB         9.9050   24.4600   16.2850 C.3   378  SER378      0.2130
     62  OG         9.9990   24.6340   14.9060 O.3   378  SER378     -0.2179
     63  N         13.1140   24.8800   15.8520 N.am  379  PHE379     -0.1959
     64  CA        14.3070   25.6930   15.7760 C.3   379  PHE379      0.1771
     65  C         14.1930   26.3080   14.4190 C.2   379  PHE379      0.2619
     66  O         14.0520   25.5980   13.4180 O.2   379  PHE379     -0.2715
     67  CB        15.5180   24.7690   15.8690 C.3   379  PHE379      0.0574
     68  CG        16.8620   25.4550   15.7600 C.ar  379  PHE379     -0.0200
     69  CD1       17.6600   25.6270   16.8960 C.ar  379  PHE379     -0.0042
     70  CD2       17.3610   25.8550   14.5330 C.ar  379  PHE379     -0.0042
     71  CE1       18.9140   26.2230   16.8030 C.ar  379  PHE379     -0.0003
     72  CE2       18.6340   26.4160   14.4180 C.ar  379  PHE379     -0.0003
     73  CZ        19.3990   26.6160   15.5620 C.ar  379  PHE379     -0.0000
     74  N         14.1880   27.6330   14.3780 N.am  380  LYS380     -0.1977
     75  CA        13.9830   28.3610   13.1230 C.3   380  LYS380      0.1596
     76  C         14.8970   29.5900   13.0080 C.2   380  LYS380      0.2287
     77  O         15.2020   30.2560   14.0050 O.2   380  LYS380     -0.2864
     78  CB        12.5270   28.8120   13.0340 C.3   380  LYS380      0.0298
     79  CG        11.4950   27.6840   12.9480 C.3   380  LYS380      0.0038
     80  CD        11.5990   26.9810   11.6020 C.3   380  LYS380      0.0206
     81  CE        10.7420   25.7090   11.5040 C.3   380  LYS380      0.1093
     82  NZ        11.4040   24.5240   12.1330 N.3   380  LYS380     -0.1314
     83  N          8.7910   31.9130    8.5440 N.3   395  LYS395     -0.1245
     84  CA         7.9180   31.1280    7.6900 C.3   395  LYS395      0.1561
     85  C          6.5030   31.3530    8.1960 C.2   395  LYS395      0.2260
     86  O          6.3140   31.6440    9.3710 O.2   395  LYS395     -0.2867
     87  CB         8.2720   29.6190    7.7740 C.3   395  LYS395      0.0271
     88  CG         8.0910   29.0290    9.1870 C.3   395  LYS395      0.0035
     89  CD         8.5360   27.5780    9.3330 C.3   395  LYS395      0.0206
     90  CE         7.4530   26.6230    8.8560 C.3   395  LYS395      0.1093
     91  NZ         7.8230   25.2060    9.0950 N.3   395  LYS395     -0.1314
     92  N          2.3040   26.8500   12.6320 N.3   403  LYS403     -0.1245
     93  CA         3.7390   26.7470   12.2470 C.3   403  LYS403      0.1561
     94  C          4.3880   28.0800   11.8610 C.2   403  LYS403      0.2260
     95  O          5.5580   28.1040   11.4230 O.2   403  LYS403     -0.2867
     96  CB         3.9250   25.8030   11.0750 C.3   403  LYS403      0.0271
     97  CG         3.4130   24.4220   11.2860 C.3   403  LYS403      0.0035
     98  CD         3.9920   23.4530   10.2440 C.3   403  LYS403      0.0206
     99  CE         3.6860   22.0360   10.7110 C.3   403  LYS403      0.1093
    100  NZ         4.2670   21.0560    9.8280 N.3   403  LYS403     -0.1314
@<TRIPOS>BOND
     1     4     3    2
     2     5     2    1
     3     5     6    1
     4     2     3    1
     5     2     1    1
     6     7     6   ar
     7     7     9   ar
     8     6     8   ar
     9     9    11   ar
    10     8    10   ar
    11    11    10   ar
    12    11    12    1
    13    84    87    1
    14    84    85    1
    15    84    83    1
    16    87    88    1
    17    85    86    2
    18    90    91    1
    19    90    89    1
    20    88    89    1
    21   100    99    1
    22    98    99    1
    23    98    97    1
    24    96    97    1
    25    96    93    1
    26    95    94    2
    27    81    80    1
    28    81    82    1
    29    31    30   ar
    30    80    79    1
    31    94    93    1
    32    93    92    1
    33    30    32   ar
    34    30    29    1
    35    79    78    1
    36    76    75    1
    37    76    77    2
    38    78    75    1
    39    75    74    1
    40    66    65    2
    41    28    29    1
    42    28    25    1
    43    50    48    1
    44    24    25    1
    45    74    65   am
    46    72    70   ar
    47    72    73   ar
    48    65    64    1
    49    70    68   ar
    50    25    26    1
    51    23    21    1
    52    62    61    1
    53    26    27    2
    54    48    49    1
    55    48    47    2
    56    21    20    2
    57    21    22    1
    58    20    19    1
    59    73    71   ar
    60    68    67    1
    61    68    69   ar
    62    64    63    1
    63    64    67    1
    64    19    18    1
    65    63    59   am
    66    47    46    1
    67    61    58    1
    68    71    69   ar
    69    39    37    1
    70    58    59    1
    71    58    57    1
    72    59    60    2
    73    38    37    1
    74    18    17    1
    75    37    34    1
    76    54    53    2
    77    46    45    1
    78    57    53   am
    79    17    14    1
    80    53    52    1
    81    44    45    1
    82    44    41    1
    83    34    33    1
    84    34    35    1
    85    42    43    2
    86    42    41    1
    87    41    40    1
    88    35    36    2
    89    14    13    1
    90    14    15    1
    91    51    52    1
    92    52    55    1
    93    15    16    2
    94    55    56    1
