@<TRIPOS>MOLECULE
tmp/3dgyB00.pdb
 130 126 0 0 0
SMALL
GASTEIGER

@<TRIPOS>ATOM
      1  N         51.7630  -35.3610   26.4900 N.3    34  ARG34      -0.1245
      2  CA        53.1340  -35.0140   26.9070 C.3    34  ARG34       0.1563
      3  C         54.0830  -34.6930   25.7550 C.2    34  ARG34       0.2260
      4  O         55.2570  -34.3520   25.9890 O.2    34  ARG34      -0.2867
      5  CB        53.7490  -36.1040   27.7790 C.3    34  ARG34       0.0307
      6  CG        53.1350  -36.2100   29.1790 C.3    34  ARG34       0.0489
      7  CD        53.9110  -37.1710   30.0590 C.3    34  ARG34       0.2205
      8  NE        55.3150  -36.7930   30.1980 N.pl3  34  ARG34      -0.0865
      9  CZ        55.8160  -35.9670   31.1200 C.cat  34  ARG34       0.5346
     10  NH1       55.0430  -35.3760   32.0310 N.pl3  34  ARG34       0.1354
     11  NH2       57.1180  -35.7300   31.1280 N.pl3  34  ARG34       0.1354
     12  N         58.8730  -29.8670   28.2670 N.3    38  VAL38      -0.1231
     13  CA        60.2870  -29.4940   28.3260 C.3    38  VAL38       0.1692
     14  C         61.1040  -30.7150   28.6670 C.2    38  VAL38       0.2592
     15  O         60.7030  -31.5190   29.5100 O.2    38  VAL38      -0.2718
     16  CB        60.5370  -28.3950   29.3620 C.3    38  VAL38       0.0266
     17  CG1       62.0000  -27.9560   29.3800 C.3    38  VAL38       0.0020
     18  CG2       59.6660  -27.2260   29.0270 C.3    38  VAL38       0.0020
     19  N         62.2150  -30.8500   27.9440 N.am   39  PHE39      -0.1962
     20  CA        63.2670  -31.8260   28.2130 C.3    39  PHE39       0.1771
     21  C         64.3730  -31.1270   29.0110 C.2    39  PHE39       0.2619
     22  O         65.0530  -30.2160   28.5020 O.2    39  PHE39      -0.2715
     23  CB        63.8170  -32.3980   26.9050 C.3    39  PHE39       0.0574
     24  CG        64.8720  -33.4580   27.1200 C.ar   39  PHE39      -0.0200
     25  CD1       66.2100  -33.1740   26.9160 C.ar   39  PHE39      -0.0042
     26  CD2       64.5130  -34.7060   27.5930 C.ar   39  PHE39      -0.0042
     27  CE1       67.1720  -34.1290   27.1460 C.ar   39  PHE39      -0.0003
     28  CE2       65.4780  -35.6680   27.8270 C.ar   39  PHE39      -0.0003
     29  CZ        66.8060  -35.3650   27.5960 C.ar   39  PHE39      -0.0000
     30  N         64.4980  -31.5130   30.2750 N.am   40  GLU40      -0.1963
     31  CA        65.3930  -30.8450   31.2130 C.3    40  GLU40       0.1733
     32  C         66.8930  -31.0810   30.9320 C.2    40  GLU40       0.2616
     33  O         67.7320  -30.3040   31.4110 O.2    40  GLU40      -0.2715
     34  CB        65.1090  -31.3260   32.6290 C.3    40  GLU40       0.0429
     35  CG        63.8450  -30.8020   33.2670 C.3    40  GLU40       0.1163
     36  CD        63.7490  -31.2920   34.7060 C.2    40  GLU40       0.3649
     37  OE1       62.7500  -31.9710   35.0370 O.co2  40  GLU40      -0.2457
     38  OE2       64.6990  -31.0540   35.4990 O.co2  40  GLU40      -0.2457
     39  N         67.2220  -32.1490   30.1890 N.am   41  ASN41      -0.1958
     40  CA        68.6250  -32.5200   29.9130 C.3    41  ASN41       0.1819
     41  C         69.3850  -32.7330   31.2380 C.2    41  ASN41       0.2621
     42  O         70.5240  -32.2740   31.4380 O.2    41  ASN41      -0.2715
     43  CB        69.2660  -31.4440   29.0280 C.3    41  ASN41       0.1195
     44  CG        70.6310  -31.8180   28.5150 C.2    41  ASN41       0.2630
     45  OD1       70.9400  -32.9880   28.2760 O.2    41  ASN41      -0.2716
     46  ND2       71.4560  -30.8010   28.3100 N.am   41  ASN41      -0.0877
     47  N         68.7250  -33.4630   32.1280 N.am   42  ARG42      -0.1963
     48  CA        69.2150  -33.7220   33.4800 C.3    42  ARG42       0.1729
     49  C         70.5340  -34.5040   33.5050 C.2    42  ARG42       0.2616
     50  O         71.3640  -34.3170   34.3990 O.2    42  ARG42      -0.2715
     51  CB        68.1600  -34.5040   34.2640 C.3    42  ARG42       0.0348
     52  CG        66.9580  -33.6750   34.6760 C.3    42  ARG42       0.0492
     53  CD        66.0650  -34.4120   35.6640 C.3    42  ARG42       0.2205
     54  NE        64.8810  -35.0310   35.0500 N.pl3  42  ARG42      -0.0865
     55  CZ        64.7140  -36.3450   34.8400 C.cat  42  ARG42       0.5346
     56  NH1       63.5850  -36.7810   34.3010 N.pl3  42  ARG42       0.1354
     57  NH2       65.6580  -37.2380   35.1480 N.pl3  42  ARG42       0.1354
     58  N         70.7110  -35.3720   32.5170 N.am   43  GLU43      -0.1977
     59  CA        71.8720  -36.2470   32.4300 C.3    43  GLU43       0.1602
     60  C         73.0480  -35.6290   31.6550 C.2    43  GLU43       0.2287
     61  O         74.0890  -36.2730   31.4710 O.2    43  GLU43      -0.2864
     62  CB        71.4580  -37.5850   31.8030 C.3    43  GLU43       0.0415
     63  CG        70.4960  -38.4300   32.6570 C.3    43  GLU43       0.1163
     64  CD        69.0250  -38.0470   32.4980 C.2    43  GLU43       0.3649
     65  OE1       68.7280  -37.1400   31.6960 O.co2  43  GLU43      -0.2457
     66  OE2       68.1660  -38.6520   33.1860 O.co2  43  GLU43      -0.2457
     67  N         73.4680  -35.2090   28.5700 N.3    45  ARG45      -0.1245
     68  CA        73.7870  -35.9550   27.3500 C.3    45  ARG45       0.1563
     69  C         73.7610  -35.0780   26.1010 C.2    45  ARG45       0.2260
     70  O         74.4460  -35.3890   25.1200 O.2    45  ARG45      -0.2867
     71  CB        72.8680  -37.1610   27.2130 C.3    45  ARG45       0.0307
     72  CG        73.2670  -38.2600   28.1650 C.3    45  ARG45       0.0489
     73  CD        72.2200  -39.3420   28.3640 C.3    45  ARG45       0.2205
     74  NE        72.5240  -40.1030   29.5690 N.pl3  45  ARG45      -0.0865
     75  CZ        71.6760  -40.9030   30.2200 C.cat  45  ARG45       0.5346
     76  NH1       70.4410  -41.0830   29.7940 N.pl3  45  ARG45       0.1354
     77  NH2       72.0740  -41.5400   31.3080 N.pl3  45  ARG45       0.1354
     78  N         60.5490  -32.3940   24.2010 N.3    56  GLU56      -0.1245
     79  CA        60.4770  -33.7980   23.7980 C.3    56  GLU56       0.1567
     80  C         59.1450  -34.2120   23.1620 C.2    56  GLU56       0.2260
     81  O         58.0920  -33.6890   23.5090 O.2    56  GLU56      -0.2867
     82  CB        60.7890  -34.7150   24.9860 C.3    56  GLU56       0.0388
     83  CG        59.9370  -34.4760   26.2200 C.3    56  GLU56       0.1160
     84  CD        59.1830  -35.6920   26.6810 C.2    56  GLU56       0.3649
     85  OE1       59.2090  -35.9370   27.9110 O.co2  56  GLU56      -0.2457
     86  OE2       58.5640  -36.4000   25.8370 O.co2  56  GLU56      -0.2457
     87  N         53.1350  -46.3690   24.6580 N.3    64  ARG64      -0.1245
     88  CA        53.7340  -45.1290   24.1480 C.3    64  ARG64       0.1563
     89  C         55.1710  -45.3570   23.6760 C.2    64  ARG64       0.2260
     90  O         55.5940  -44.7800   22.6650 O.2    64  ARG64      -0.2867
     91  CB        53.6810  -44.0270   25.2200 C.3    64  ARG64       0.0307
     92  CG        54.1620  -42.6640   24.7620 C.3    64  ARG64       0.0489
     93  CD        53.7360  -41.5500   25.7270 C.3    64  ARG64       0.2205
     94  NE        54.5110  -40.3220   25.4930 N.pl3  64  ARG64      -0.0865
     95  CZ        55.3320  -39.7370   26.3720 C.cat  64  ARG64       0.5346
     96  NH1       55.9890  -38.6360   26.0140 N.pl3  64  ARG64       0.1354
     97  NH2       55.4920  -40.2240   27.6020 N.pl3  64  ARG64       0.1354
     98  N         61.9810  -41.2890   20.9150 N.3    68  ARG68      -0.1245
     99  CA        61.7080  -39.8710   21.1340 C.3    68  ARG68       0.1563
    100  C         62.4770  -39.0300   20.1550 C.2    68  ARG68       0.2260
    101  O         63.5210  -39.4540   19.6460 O.2    68  ARG68      -0.2867
    102  CB        62.1240  -39.4450   22.5520 C.3    68  ARG68       0.0307
    103  CG        61.4080  -40.1530   23.7130 C.3    68  ARG68       0.0489
    104  CD        60.0730  -39.4980   24.0810 C.3    68  ARG68       0.2205
    105  NE        59.4830  -40.1650   25.2490 N.pl3  68  ARG68      -0.0865
    106  CZ        58.7940  -41.3020   25.2010 C.cat  68  ARG68       0.5346
    107  NH1       58.5940  -41.9250   24.0480 N.pl3  68  ARG68       0.1354
    108  NH2       58.3060  -41.8280   26.3230 N.pl3  68  ARG68       0.1354
    109  N         64.7530  -43.9640   24.9650 N.3    83  HIS83      -0.1226
    110  CA        64.3180  -43.1080   26.0640 C.3    83  HIS83       0.1752
    111  C         65.4680  -42.3270   26.7020 C.2    83  HIS83       0.2596
    112  O         65.6360  -42.3200   27.9160 O.2    83  HIS83      -0.2718
    113  CB        63.5410  -43.9120   27.1040 C.3    83  HIS83       0.0759
    114  CG        62.6160  -43.0740   27.9280 C.ar   83  HIS83       0.0818
    115  ND1       62.8400  -42.8110   29.2620 N.ar   83  HIS83      -0.2268
    116  CD2       61.4950  -42.3930   27.5920 C.ar   83  HIS83       0.1154
    117  CE1       61.8790  -42.0280   29.7210 C.ar   83  HIS83       0.1986
    118  NE2       61.0520  -41.7570   28.7260 N.ar   83  HIS83      -0.2212
    119  N         66.2370  -41.6590   25.8490 N.am   84  TYR84      -0.1976
    120  CA        67.2520  -40.6690   26.2420 C.3    84  TYR84       0.1639
    121  C         68.5490  -41.2730   26.7720 C.2    84  TYR84       0.2290
    122  O         69.3630  -40.5500   27.3430 O.2    84  TYR84      -0.2864
    123  CB        66.7240  -39.6600   27.2680 C.3    84  TYR84       0.0560
    124  CG        65.3200  -39.1540   27.0400 C.ar   84  TYR84      -0.0198
    125  CD1       64.9590  -38.5510   25.8460 C.ar   84  TYR84      -0.0009
    126  CD2       64.3570  -39.2440   28.0540 C.ar   84  TYR84      -0.0009
    127  CE1       63.6560  -38.0780   25.6480 C.ar   84  TYR84       0.0417
    128  CE2       63.0680  -38.7840   27.8700 C.ar   84  TYR84       0.0417
    129  CZ        62.7230  -38.1900   26.6690 C.ar   84  TYR84       0.1957
    130  OH        61.4470  -37.7190   26.4830 O.3    84  TYR84      -0.2866
@<TRIPOS>BOND
     1   101   100    2
     2   100    99    1
     3    98    99    1
     4    99   102    1
     5   102   103    1
     6    90    89    2
     7    80    81    2
     8    80    79    1
     9    89    88    1
    10   103   104    1
    11    79    78    1
    12    79    82    1
    13   107   106    1
    14   104   105    1
    15    88    87    1
    16    88    91    1
    17    92    91    1
    18    92    93    1
    19   109   110    1
    20    82    83    1
    21    70    69    2
    22   106   105    2
    23   106   108    1
    24    94    93    1
    25    94    95    2
    26   127   125   ar
    27   127   129   ar
    28     3     4    2
    29     3     2    1
    30    86    84   ar
    31   125   124   ar
    32   119   120    1
    33   119   111   am
    34    96    95    1
    35   110   111    1
    36   110   113    1
    37    69    68    1
    38    83    84    1
    39   120   121    1
    40   120   123    1
    41    95    97    1
    42   130   129    1
    43     1     2    1
    44   129   128   ar
    45    84    85   ar
    46   111   112    2
    47   121   122    2
    48    23    24    1
    49    23    20    1
    50     2     5    1
    51    25    24   ar
    52    25    27   ar
    53   124   123    1
    54   124   126   ar
    55   113   114    1
    56    24    26   ar
    57    27    29   ar
    58    71    68    1
    59    71    72    1
    60    68    67    1
    61   116   114   ar
    62   116   118   ar
    63    26    28   ar
    64    29    28   ar
    65     5     6    1
    66   128   126   ar
    67   114   115   ar
    68    19    20    1
    69    19    14   am
    70    72    73    1
    71    20    21    1
    72    12    13    1
    73    45    44    2
    74    46    44   am
    75    13    14    1
    76    13    16    1
    77    73    74    1
    78    22    21    2
    79    44    43    1
    80    14    15    2
    81   118   117   ar
    82    21    30   am
    83    18    16    1
    84    43    40    1
    85     6     7    1
    86   115   117   ar
    87    16    17    1
    88    74    75    2
    89    76    75    1
    90    40    39    1
    91    40    41    1
    92     7     8    1
    93    39    32   am
    94     8     9    2
    95    75    77    1
    96    30    31    1
    97    32    31    1
    98    32    33    2
    99     9    11    1
   100     9    10    1
   101    31    34    1
   102    41    42    2
   103    41    47   am
   104    61    60    2
   105    60    59    1
   106    65    64   ar
   107    62    59    1
   108    62    63    1
   109    47    48    1
   110    59    58    1
   111    64    63    1
   112    64    66   ar
   113    58    49   am
   114    34    35    1
   115    35    36    1
   116    48    49    1
   117    48    51    1
   118    49    50    2
   119    51    52    1
   120    56    55    1
   121    52    53    1
   122    36    37   ar
   123    36    38   ar
   124    55    54    2
   125    55    57    1
   126    54    53    1
