@<TRIPOS>MOLECULE
tmp/3dgzA01.pdb
 172 165 0 0 0
SMALL
GASTEIGER

@<TRIPOS>ATOM
      1  N        103.3800   98.4500  -50.4340 N.3   157  ARG157     -0.1245
      2  CA       104.7700   98.5500  -50.8750 C.3   157  ARG157      0.1563
      3  C        105.4900   97.2380  -50.7140 C.2   157  ARG157      0.2260
      4  O        105.2820   96.5070  -49.7190 O.2   157  ARG157     -0.2867
      5  CB       105.5090   99.6030  -50.0460 C.3   157  ARG157      0.0307
      6  CG       107.0030   99.8880  -50.4460 C.3   157  ARG157      0.0489
      7  CD       107.5020  101.2930  -50.0960 C.3   157  ARG157      0.2205
      8  NE       106.7880  101.9380  -48.9850 N.pl3 157  ARG157     -0.0865
      9  CZ       107.1730  103.0540  -48.3350 C.cat 157  ARG157      0.5346
     10  NH1      108.3100  103.7140  -48.6710 N.pl3 157  ARG157      0.1354
     11  NH2      106.4160  103.5140  -47.3280 N.pl3 157  ARG157      0.1354
     12  N        109.5520   95.6650  -50.6970 N.3   159  PRO159     -0.2116
     13  CA       110.9250   96.0990  -50.5360 C.3   159  PRO159      0.1372
     14  C        111.7360   95.9240  -51.8120 C.2   159  PRO159      0.2244
     15  O        111.4100   95.0840  -52.6660 O.2   159  PRO159     -0.2868
     16  CB       111.4620   95.1670  -49.4470 C.3   159  PRO159      0.0268
     17  CG       110.5770   93.9590  -49.4970 C.3   159  PRO159      0.0207
     18  CD       109.2470   94.4540  -49.9010 C.3   159  PRO159      0.0892
     19  N        106.5600   91.6880  -41.5310 N.3   188  VAL188     -0.1231
     20  CA       107.6230   92.6040  -41.5790 C.3   188  VAL188      0.1692
     21  C        107.0240   93.9960  -41.5660 C.2   188  VAL188      0.2593
     22  O        106.3650   94.3840  -42.5120 O.2   188  VAL188     -0.2718
     23  CB       108.6040   92.3250  -42.8250 C.3   188  VAL188      0.0266
     24  CG1      109.7360   93.3240  -42.8600 C.3   188  VAL188      0.0020
     25  CG2      109.1320   90.9040  -42.8260 C.3   188  VAL188      0.0020
     26  N        107.2940   94.7600  -40.5150 N.am  189  GLY189     -0.1942
     27  CA       107.0030   96.2120  -40.4390 C.3   189  GLY189      0.2014
     28  C        106.5360   96.5190  -39.0140 C.2   189  GLY189      0.2639
     29  O        106.3850   95.5770  -38.2150 O.2   189  GLY189     -0.2714
     30  N        106.2150   97.7830  -38.7290 N.am  190  ALA190     -0.1963
     31  CA       106.0370   98.2810  -37.3920 C.3   190  ALA190      0.1728
     32  C        104.8700   99.3080  -37.2980 C.2   190  ALA190      0.2616
     33  O        104.6940   99.9560  -36.2800 O.2   190  ALA190     -0.2715
     34  CB       107.3260   98.9140  -36.9500 C.3   190  ALA190      0.0334
     35  N        104.1270   99.4210  -38.4080 N.am  191  SER191     -0.1950
     36  CA       102.9920  100.2850  -38.6210 C.3   191  SER191      0.1924
     37  C        101.7500   99.6510  -38.0010 C.2   191  SER191      0.2314
     38  O        101.7680   98.5110  -37.5700 O.2   191  SER191     -0.2863
     39  CB       102.6820  100.3890  -40.1670 C.3   191  SER191      0.2116
     40  OG       102.3780   99.0900  -40.7770 O.3   191  SER191     -0.2180
     41  N        108.7630   91.7460  -37.3240 N.3   211  MET211     -0.1245
     42  CA       110.0990   92.2620  -37.5400 C.3   211  MET211      0.1570
     43  C        110.0360   93.7750  -37.6670 C.2   211  MET211      0.2261
     44  O        109.5310   94.2970  -38.6440 O.2   211  MET211     -0.2867
     45  CB       110.7690   91.6300  -38.7790 C.3   211  MET211      0.0387
     46  CG       112.2670   91.9330  -38.9040 C.3   211  MET211      0.0595
     47  SD       113.0790   90.9980  -40.1740 S.3   211  MET211     -0.1393
     48  CE       112.9790   89.3160  -39.5180 C.3   211  MET211      0.0692
     49  N        112.3310   97.2980  -37.7520 N.3   213  ARG213     -0.1231
     50  CA       113.6210   97.8470  -37.9900 C.3   213  ARG213      0.1694
     51  C        114.0180   98.8240  -36.8910 C.2   213  ARG213      0.2593
     52  O        115.1660   98.8760  -36.4450 O.2   213  ARG213     -0.2718
     53  CB       113.6830   98.4310  -39.4160 C.3   213  ARG213      0.0321
     54  CG       113.6430   99.9320  -39.5850 C.3   213  ARG213      0.0489
     55  CD       114.0420  100.3740  -41.0400 C.3   213  ARG213      0.2205
     56  NE       112.9940  101.2870  -41.5240 N.pl3 213  ARG213     -0.0865
     57  CZ       112.7400  101.6120  -42.7920 C.cat 213  ARG213      0.5346
     58  NH1      113.4570  101.1150  -43.8110 N.pl3 213  ARG213      0.1354
     59  NH2      111.7490  102.4670  -43.0410 N.pl3 213  ARG213      0.1354
     60  N        113.0240   99.5470  -36.4170 N.am  214  SER214     -0.1938
     61  CA       113.1930  100.6700  -35.5140 C.3   214  SER214      0.2055
     62  C        112.0610  100.6780  -34.4400 C.2   214  SER214      0.2642
     63  O        111.8210   99.6610  -33.7960 O.2   214  SER214     -0.2714
     64  CB       113.1940  101.9650  -36.3600 C.3   214  SER214      0.2130
     65  OG       113.8160  103.0040  -35.6630 O.3   214  SER214     -0.2179
     66  N        111.4070  101.8330  -34.2650 N.am  215  ILE215     -0.1977
     67  CA       110.2920  102.0260  -33.3440 C.3   215  ILE215      0.1596
     68  C        108.9700  101.4940  -33.9070 C.2   215  ILE215      0.2287
     69  O        108.7730  101.4410  -35.1490 O.2   215  ILE215     -0.2864
     70  CB       110.1470  103.5520  -32.9380 C.3   215  ILE215      0.0276
     71  CG1      109.7960  104.4180  -34.1400 C.3   215  ILE215      0.0022
     72  CG2      111.4730  104.1480  -32.2980 C.3   215  ILE215      0.0022
     73  CD1      109.6240  105.8500  -33.8080 C.3   215  ILE215      0.0001
     74  N        105.7270  104.7940  -35.7200 N.3   218  ARG218     -0.1245
     75  CA       106.2900  106.1150  -36.0000 C.3   218  ARG218      0.1563
     76  C        105.1340  107.1050  -36.2850 C.2   218  ARG218      0.2260
     77  O        104.1790  106.8100  -37.0080 O.2   218  ARG218     -0.2867
     78  CB       107.2540  106.0430  -37.1790 C.3   218  ARG218      0.0307
     79  CG       108.1770  107.2780  -37.3050 C.3   218  ARG218      0.0489
     80  CD       109.1440  107.1420  -38.5200 C.3   218  ARG218      0.2205
     81  NE       110.0510  106.0050  -38.3680 N.pl3 218  ARG218     -0.0865
     82  CZ       111.1200  106.0020  -37.5590 C.cat 218  ARG218      0.5346
     83  NH1      111.3980  107.0790  -36.8310 N.pl3 218  ARG218      0.1354
     84  NH2      111.8960  104.9160  -37.4530 N.pl3 218  ARG218      0.1354
     85  N        115.8020   94.5380  -36.5290 N.3   243  CYS243     -0.1221
     86  CA       116.0610   93.5250  -37.5360 C.3   243  CYS243      0.1808
     87  C        115.4680   93.9560  -38.8630 C.2   243  CYS243      0.2601
     88  O        114.3980   94.5570  -38.9000 O.2   243  CYS243     -0.2717
     89  CB       115.4240   92.2210  -37.1200 C.3   243  CYS243      0.0970
     90  SG       116.2350   91.5550  -35.6940 S.3   243  CYS243     -0.0800
     91  N        116.1640   93.6390  -39.9390 N.am  244  VAL244     -0.1966
     92  CA       115.7440   94.0160  -41.2730 C.3   244  VAL244      0.1712
     93  C        115.9970   92.7660  -42.1430 C.2   244  VAL244      0.2458
     94  O        117.0690   92.1430  -42.0160 O.2   244  VAL244     -0.2730
     95  CB       116.6080   95.2240  -41.7940 C.3   244  VAL244      0.0289
     96  CG1      116.0740   95.7560  -43.1420 C.3   244  VAL244      0.0023
     97  CG2      116.7160   96.3870  -40.7180 C.3   244  VAL244      0.0023
     98  N        115.0250   92.3840  -43.0220 N.am  245  PRO245     -0.2727
     99  CA       115.2610   91.1520  -43.7970 C.3   245  PRO245      0.1402
    100  C        116.3080   91.3370  -44.9140 C.2   245  PRO245      0.2269
    101  O        116.6170   92.4520  -45.3100 O.2   245  PRO245     -0.2865
    102  CB       113.8760   90.7840  -44.3600 C.3   245  PRO245      0.0296
    103  CG       112.9840   91.9450  -44.1020 C.3   245  PRO245      0.0237
    104  CD       113.7140   93.0020  -43.3110 C.3   245  PRO245      0.0939
    105  N        104.5530   91.4220  -45.8410 N.3   278  TRP278     -0.1227
    106  CA       105.1550   92.7670  -45.9030 C.3   278  TRP278      0.1737
    107  C        104.1270   93.7990  -45.5900 C.2   278  TRP278      0.2595
    108  O        103.1250   93.9030  -46.2750 O.2   278  TRP278     -0.2718
    109  CB       105.6920   93.0950  -47.3140 C.3   278  TRP278      0.0564
    110  CG       106.6130   92.0940  -47.8120 C.ar  278  TRP278      0.0003
    111  CD1      106.3520   91.1050  -48.7210 C.ar  278  TRP278      0.0946
    112  CD2      107.9530   91.9140  -47.3790 C.ar  278  TRP278      0.0152
    113  NE1      107.4720   90.3220  -48.8850 N.ar  278  TRP278     -0.2442
    114  CE2      108.4690   90.8040  -48.0750 C.ar  278  TRP278      0.0810
    115  CE3      108.7730   92.5900  -46.4710 C.ar  278  TRP278      0.0012
    116  CZ2      109.7780   90.3710  -47.9100 C.ar  278  TRP278      0.0191
    117  CZ3      110.0530   92.1570  -46.3060 C.ar  278  TRP278      0.0001
    118  CH2      110.5590   91.0630  -47.0220 C.ar  278  TRP278      0.0015
    119  N        104.3600   94.5740  -44.5490 N.am  279  ALA279     -0.1966
    120  CA       103.4540   95.6550  -44.1760 C.3   279  ALA279      0.1728
    121  C        104.3580   96.8560  -43.8340 C.2   279  ALA279      0.2616
    122  O        104.4940   97.2630  -42.6600 O.2   279  ALA279     -0.2715
    123  CB       102.5030   95.2460  -42.9580 C.3   279  ALA279      0.0334
    124  N        104.9820   97.4180  -44.8660 N.am  280  ILE280     -0.1963
    125  CA       106.0870   98.3860  -44.7040 C.3   280  ILE280      0.1727
    126  C        105.6540   99.6800  -45.4080 C.2   280  ILE280      0.2617
    127  O        106.4590  100.4560  -45.8980 O.2   280  ILE280     -0.2715
    128  CB       107.4550   97.8290  -45.2330 C.3   280  ILE280      0.0290
    129  CG1      107.3100   97.2230  -46.6580 C.3   280  ILE280      0.0022
    130  CG2      107.9590   96.7350  -44.2970 C.3   280  ILE280      0.0023
    131  CD1      108.6370   97.1340  -47.5070 C.3   280  ILE280      0.0001
    132  N        104.3620   99.9130  -45.4130 N.am  281  GLY281     -0.1940
    133  CA       103.7970  101.1530  -45.9120 C.3   281  GLY281      0.2014
    134  C        103.1380  100.9340  -47.2400 C.2   281  GLY281      0.2638
    135  O        103.2160   99.8540  -47.8200 O.2   281  GLY281     -0.2714
    136  N        102.5130  101.9800  -47.7370 N.am  282  ARG282     -0.1977
    137  CA       101.7230  101.9240  -48.9660 C.3   282  ARG282      0.1597
    138  C        102.1570  103.0090  -49.9310 C.2   282  ARG282      0.2287
    139  O        102.6110  104.1120  -49.5290 O.2   282  ARG282     -0.2864
    140  CB       100.2570  102.1110  -48.6700 C.3   282  ARG282      0.0334
    141  CG        99.5540  100.8630  -48.1650 C.3   282  ARG282      0.0492
    142  CD        98.1640  101.2260  -47.6000 C.3   282  ARG282      0.2205
    143  NE        97.0680  101.3330  -48.5650 N.pl3 282  ARG282     -0.0865
    144  CZ        96.4890  100.2880  -49.1710 C.cat 282  ARG282      0.5346
    145  NH1       96.9570   99.0560  -49.0080 N.pl3 282  ARG282      0.1354
    146  NH2       95.4910  100.4770  -49.9920 N.pl3 282  ARG282      0.1354
    147  N        106.9920  111.3120  -52.3120 N.3   302  ASN302     -0.1240
    148  CA       105.9250  110.3090  -52.3650 C.3   302  ASN302      0.1653
    149  C        105.2720  110.3780  -53.7570 C.2   302  ASN302      0.2266
    150  O        105.5940  111.2530  -54.5620 O.2   302  ASN302     -0.2867
    151  CB       104.9370  110.4880  -51.2270 C.3   302  ASN302      0.1155
    152  CG       104.4500  111.9250  -51.0870 C.2   302  ASN302      0.2627
    153  OD1      104.0060  112.5530  -52.0560 O.2   302  ASN302     -0.2716
    154  ND2      104.4980  112.4420  -49.8680 N.am  302  ASN302     -0.0877
    155  N        102.2860  111.2460  -54.4710 N.3   304  LYS304     -0.1245
    156  CA       100.9300  111.7090  -54.1940 C.3   304  LYS304      0.1561
    157  C        100.5990  112.8520  -55.1250 C.2   304  LYS304      0.2260
    158  O        101.4940  113.4170  -55.7270 O.2   304  LYS304     -0.2867
    159  CB       100.6620  112.0900  -52.7030 C.3   304  LYS304      0.0271
    160  CG       100.7750  110.9230  -51.7640 C.3   304  LYS304      0.0035
    161  CD       100.0980  111.1770  -50.4040 C.3   304  LYS304      0.0206
    162  CE       100.3770  110.0500  -49.3720 C.3   304  LYS304      0.1093
    163  NZ        99.1700  109.7970  -48.5130 N.3   304  LYS304     -0.1314
    164  N         95.4180  109.1460  -43.8970 N.3   330  GLU330     -0.1245
    165  CA        94.9760  108.0440  -44.7490 C.3   330  GLU330      0.1567
    166  C         93.9050  107.2300  -44.0220 C.2   330  GLU330      0.2260
    167  O         94.2100  106.2000  -43.4480 O.2   330  GLU330     -0.2867
    168  CB        96.1990  107.1610  -45.1480 C.3   330  GLU330      0.0388
    169  CG        97.0540  107.7970  -46.2800 C.3   330  GLU330      0.1160
    170  CD        98.3520  107.0630  -46.4480 C.2   330  GLU330      0.3649
    171  OE1       98.3950  105.8320  -46.1790 O.co2 330  GLU330     -0.2457
    172  OE2       99.3340  107.7160  -46.8410 O.co2 330  GLU330     -0.2457
@<TRIPOS>BOND
     1   158   157    2
     2   157   156    1
     3   150   149    2
     4   155   156    1
     5   156   159    1
     6   149   148    1
     7   159   160    1
     8    15    14    2
     9   148   147    1
    10   148   151    1
    11   153   152    2
    12    14    13    1
    13   160   161    1
    14   151   152    1
    15   152   154   am
    16     2     3    1
    17     2     1    1
    18     2     5    1
    19     3     4    2
    20    12    13    1
    21    12    18    1
    22    13    16    1
    23     6     7    1
    24     6     5    1
    25   161   162    1
    26     7     8    1
    27   146   144    1
    28   138   139    2
    29   138   137    1
    30    18    17    1
    31    17    16    1
    32   162   163    1
    33   144   145    1
    34   144   143    2
    35     8     9    2
    36   137   140    1
    37   137   136    1
    38   113   111   ar
    39   113   114   ar
    40   111   110   ar
    41    10     9    1
    42   140   141    1
    43   143   142    1
    44     9    11    1
    45   141   142    1
    46   114   116   ar
    47   114   112   ar
    48   116   118   ar
    49   135   134    2
    50   110   112   ar
    51   110   109    1
    52   136   134   am
    53   131   129    1
    54   112   115   ar
    55   109   106    1
    56   134   133    1
    57   118   117   ar
    58   172   170   ar
    59   129   128    1
    60   115   117   ar
    61   170   169    1
    62   170   171   ar
    63   169   168    1
    64   108   107    2
    65   133   132    1
    66   106   105    1
    67   106   107    1
    68   127   126    2
    69   107   119   am
    70   132   126   am
    71   126   125    1
    72   101   100    2
    73   128   125    1
    74   128   130    1
    75   168   165    1
    76   100    99    1
    77   124   125    1
    78   124   121   am
    79   165   166    1
    80   165   164    1
    81   119   120    1
    82   102   103    1
    83   102    99    1
    84   120   121    1
    85   120   123    1
    86   103   104    1
    87   166   167    2
    88   121   122    2
    89    58    57    1
    90    99    98    1
    91   104    98    1
    92    96    95    1
    93    59    57    1
    94    98    93   am
    95    24    23    1
    96    25    23    1
    97    23    20    1
    98    57    56    2
    99    22    21    2
   100    93    94    2
   101    93    92    1
   102    95    92    1
   103    95    97    1
   104    20    21    1
   105    20    19    1
   106    21    26   am
   107    56    55    1
   108    92    91    1
   109    55    54    1
   110    40    39    1
   111    26    27    1
   112    27    28    1
   113    47    48    1
   114    47    46    1
   115    39    36    1
   116    91    87   am
   117    54    53    1
   118    53    50    1
   119    28    30   am
   120    28    29    2
   121    46    45    1
   122    88    87    2
   123    87    86    1
   124    45    42    1
   125    30    31    1
   126    44    43    2
   127    36    35    1
   128    36    37    1
   129    80    81    1
   130    80    79    1
   131    35    32   am
   132    81    82    2
   133    37    38    2
   134    50    49    1
   135    50    51    1
   136    43    42    1
   137    82    84    1
   138    82    83    1
   139    42    41    1
   140    86    89    1
   141    86    85    1
   142    31    32    1
   143    31    34    1
   144    79    78    1
   145    32    33    2
   146    78    75    1
   147    89    90    1
   148    77    76    2
   149    51    52    2
   150    51    60   am
   151    60    61    1
   152    64    65    1
   153    64    61    1
   154    76    75    1
   155    75    74    1
   156    61    62    1
   157    69    68    2
   158    62    66   am
   159    62    63    2
   160    66    67    1
   161    71    73    1
   162    71    70    1
   163    68    67    1
   164    67    70    1
   165    70    72    1
