@<TRIPOS>MOLECULE
tmp/3dh0B00.pdb
 222 217 0 0 0
SMALL
GASTEIGER

@<TRIPOS>ATOM
      1  N          0.3630    5.4670    3.1210 N.3     3  LYS3       -0.1231
      2  CA         1.1590    6.5550    3.6770 C.3     3  LYS3        0.1693
      3  C          0.9470    7.8630    2.9510 C.2     3  LYS3        0.2592
      4  O          0.4100    7.8630    1.8560 O.2     3  LYS3       -0.2718
      5  CB         2.6390    6.1730    3.6490 C.3     3  LYS3        0.0285
      6  CG         3.4170    6.7030    4.8200 C.3     3  LYS3        0.0035
      7  CD         2.7560    6.3090    6.1490 C.3     3  LYS3        0.0206
      8  CE         2.8110    4.7990    6.4400 C.3     3  LYS3        0.1093
      9  NZ         2.2610    4.4350    7.7950 N.3     3  LYS3       -0.1314
     10  N          1.3630    8.9740    3.5550 N.am    4  PHE4       -0.1976
     11  CA         1.1940   10.2790    2.9290 C.3     4  PHE4        0.1639
     12  C          2.4010   10.6600    2.0760 C.2     4  PHE4        0.2290
     13  O          3.5350   10.5340    2.5130 O.2     4  PHE4       -0.2864
     14  CB         0.9760   11.3490    3.9900 C.3     4  PHE4        0.0560
     15  CG         0.4950   12.6570    3.4360 C.ar    4  PHE4       -0.0200
     16  CD1       -0.8580   12.9790    3.4610 C.ar    4  PHE4       -0.0042
     17  CD2        1.3920   13.5680    2.8870 C.ar    4  PHE4       -0.0042
     18  CE1       -1.3180   14.1980    2.9480 C.ar    4  PHE4       -0.0003
     19  CE2        0.9470   14.7830    2.3730 C.ar    4  PHE4       -0.0003
     20  CZ        -0.4140   15.0990    2.4040 C.ar    4  PHE4       -0.0000
     21  N         -0.1790   19.7990    3.7750 N.3    12  LEU12      -0.1245
     22  CA        -0.5340   19.6990    5.1900 C.3    12  LEU12       0.1561
     23  C         -0.3370   20.9700    6.0040 C.2    12  LEU12       0.2260
     24  O         -0.8060   21.0460    7.1270 O.2    12  LEU12      -0.2867
     25  CB         0.2630   18.5620    5.8370 C.3    12  LEU12       0.0270
     26  CG         0.0900   17.1710    5.2130 C.3    12  LEU12       0.0019
     27  CD1        1.2350   16.2920    5.6010 C.3    12  LEU12       0.0001
     28  CD2       -1.2310   16.5690    5.6390 C.3    12  LEU12       0.0001
     29  N         -6.6950   24.5980    6.0650 N.3    17  ARG17      -0.1245
     30  CA        -7.0880   23.5360    6.9910 C.3    17  ARG17       0.1563
     31  C         -7.9470   24.1070    8.1170 C.2    17  ARG17       0.2260
     32  O         -8.8000   23.4090    8.6690 O.2    17  ARG17      -0.2867
     33  CB        -5.8640   22.8450    7.6310 C.3    17  ARG17       0.0307
     34  CG        -4.6740   22.5070    6.7260 C.3    17  ARG17       0.0489
     35  CD        -4.8540   21.2780    5.8300 C.3    17  ARG17       0.2205
     36  NE        -5.0930   20.0300    6.5560 N.pl3  17  ARG17      -0.0865
     37  CZ        -4.2530   19.4640    7.4250 C.cat  17  ARG17       0.5346
     38  NH1       -3.0830   20.0240    7.7040 N.pl3  17  ARG17       0.1354
     39  NH2       -4.5940   18.3280    8.0260 N.pl3  17  ARG17       0.1354
     40  N          1.6930   14.1450   19.7530 N.3    40  ASP40      -0.1225
     41  CA         1.0320   14.3710   18.4820 C.3    40  ASP40       0.1805
     42  C          1.5460   13.3010   17.5270 C.2    40  ASP40       0.2598
     43  O          2.6700   13.3750   17.0330 O.2    40  ASP40      -0.2718
     44  CB         1.3760   15.7690   17.9700 C.3    40  ASP40       0.1424
     45  CG         0.7430   16.0690   16.6340 C.2    40  ASP40       0.3668
     46  OD1       -0.4530   15.7600   16.4670 O.co2  40  ASP40      -0.2456
     47  OD2        1.4420   16.6240   15.7570 O.co2  40  ASP40      -0.2456
     48  N          0.7150   12.3040   17.2720 N.am   41  VAL41      -0.1966
     49  CA         1.0840   11.1810   16.4180 C.3    41  VAL41       0.1727
     50  C          1.5130   11.4860   14.9830 C.2    41  VAL41       0.2617
     51  O          2.6900   11.3690   14.6430 O.2    41  VAL41      -0.2715
     52  CB        -0.0390   10.1510   16.3980 C.3    41  VAL41       0.0290
     53  CG1        0.3710    8.9450   15.5850 C.3    41  VAL41       0.0023
     54  CG2       -0.3620    9.7440   17.8220 C.3    41  VAL41       0.0023
     55  N          0.5870   11.8350   14.1080 N.am   42  GLY42      -0.1940
     56  CA         1.0300   12.1300   12.7570 C.3    42  GLY42       0.2014
     57  C          1.2620   13.6220   12.6820 C.2    42  GLY42       0.2640
     58  O          0.4360   14.3540   12.1310 O.2    42  GLY42      -0.2714
     59  N          2.3700   14.0780   13.2490 N.am   43  THR43      -0.1936
     60  CA         2.6790   15.4950   13.2710 C.3    43  THR43       0.2028
     61  C          2.6030   16.1050   11.8520 C.2    43  THR43       0.2643
     62  O          2.1990   17.2600   11.6800 O.2    43  THR43      -0.2714
     63  CB         4.0750   15.7160   13.9420 C.3    43  THR43       0.1808
     64  OG1        4.1620   17.0490   14.4490 O.3    43  THR43      -0.2208
     65  CG2        5.2110   15.4670   12.9520 C.3    43  THR43       0.0379
     66  N          2.9730   15.3170   10.8450 N.am   44  GLY44      -0.1939
     67  CA         2.9200   15.7860    9.4760 C.3    44  GLY44       0.2014
     68  C          3.8010   16.9900    9.2400 C.2    44  GLY44       0.2638
     69  O          5.0180   16.9180    9.3880 O.2    44  GLY44      -0.2714
     70  N          3.1930   18.1080    8.8660 N.am   45  ALA45      -0.1977
     71  CA         3.9480   19.3210    8.6170 C.3    45  ALA45       0.1597
     72  C          4.0840   20.0790    9.9300 C.2    45  ALA45       0.2287
     73  O          4.7310   21.1230    9.9960 O.2    45  ALA45      -0.2864
     74  CB         3.2260   20.1680    7.5870 C.3    45  ALA45       0.0319
     75  N          1.4550   21.2230   11.5020 N.3    47  PHE47      -0.1227
     76  CA         0.3980   22.2360   11.4620 C.3    47  PHE47       0.1736
     77  C         -0.2500   22.5930   12.8030 C.2    47  PHE47       0.2595
     78  O         -0.3990   23.7720   13.1220 O.2    47  PHE47      -0.2718
     79  CB        -0.7000   21.8070   10.4900 C.3    47  PHE47       0.0547
     80  CG        -1.6590   22.9010   10.1430 C.ar   47  PHE47      -0.0202
     81  CD1       -1.2730   23.9410    9.2930 C.ar   47  PHE47      -0.0042
     82  CD2       -2.9470   22.8910   10.6490 C.ar   47  PHE47      -0.0042
     83  CE1       -2.1610   24.9610    8.9500 C.ar   47  PHE47      -0.0003
     84  CE2       -3.8470   23.9050   10.3140 C.ar   47  PHE47      -0.0003
     85  CZ        -3.4520   24.9420    9.4610 C.ar   47  PHE47      -0.0000
     86  N         -0.6320   21.5810   13.5810 N.am   48  TYR48      -0.1976
     87  CA        -1.2720   21.8200   14.8590 C.3    48  TYR48       0.1639
     88  C         -0.3380   22.0020   16.0450 C.2    48  TYR48       0.2290
     89  O         -0.7990   22.1840   17.1670 O.2    48  TYR48      -0.2864
     90  CB        -2.2580   20.6950   15.1530 C.3    48  TYR48       0.0560
     91  CG        -3.4380   20.6810   14.2100 C.ar   48  TYR48      -0.0198
     92  CD1       -4.2650   21.8000   14.0810 C.ar   48  TYR48      -0.0009
     93  CD2       -3.7160   19.5590   13.4310 C.ar   48  TYR48      -0.0009
     94  CE1       -5.3340   21.8050   13.2020 C.ar   48  TYR48       0.0417
     95  CE2       -4.7870   19.5490   12.5460 C.ar   48  TYR48       0.0417
     96  CZ        -5.5920   20.6770   12.4340 C.ar   48  TYR48       0.1957
     97  OH        -6.6420   20.6640   11.5450 O.3    48  TYR48      -0.2866
     98  N          5.6950   13.2410   16.8960 N.3    65  ILE65      -0.1231
     99  CA         6.4220   12.1380   16.2930 C.3    65  ILE65       0.1692
    100  C          5.9330   11.9560   14.8750 C.2    65  ILE65       0.2592
    101  O          4.9370   12.5430   14.4870 O.2    65  ILE65      -0.2718
    102  CB         6.2120   10.8140   17.0470 C.3    65  ILE65       0.0266
    103  CG1        4.7370   10.4340   17.0080 C.3    65  ILE65       0.0019
    104  CG2        6.7200   10.9330   18.4670 C.3    65  ILE65       0.0020
    105  CD1        4.4720    8.9910   17.3490 C.3    65  ILE65       0.0001
    106  N          6.6530   11.1520   14.1020 N.am   66  ASP66      -0.1960
    107  CA         6.2890   10.8720   12.7250 C.3    66  ASP66       0.1840
    108  C          7.2950    9.8910   12.1410 C.2    66  ASP66       0.2622
    109  O          8.4880    9.9900   12.4340 O.2    66  ASP66      -0.2715
    110  CB         6.2680   12.1590   11.8970 C.3    66  ASP66       0.1450
    111  CG         5.3320   12.0570   10.7040 C.2    66  ASP66       0.3671
    112  OD1        5.5070   11.1140    9.9040 O.co2  66  ASP66      -0.2456
    113  OD2        4.4230   12.9100   10.5770 O.co2  66  ASP66      -0.2456
    114  N          6.8080    8.9490   11.3260 N.am   67  VAL67      -0.1963
    115  CA         7.6510    7.9350   10.6960 C.3    67  VAL67       0.1727
    116  C          8.3630    8.3430    9.4060 C.2    67  VAL67       0.2616
    117  O          9.1530    7.5790    8.8820 O.2    67  VAL67      -0.2715
    118  CB         6.8620    6.6260   10.4030 C.3    67  VAL67       0.0290
    119  CG1        6.4180    6.0010   11.6870 C.3    67  VAL67       0.0023
    120  CG2        5.6550    6.9090    9.5140 C.3    67  VAL67       0.0023
    121  N          8.0870    9.5290    8.8810 N.am   68  GLN68      -0.1977
    122  CA         8.7600    9.9550    7.6640 C.3    68  GLN68       0.1601
    123  C          9.6890   11.1040    8.0070 C.2    68  GLN68       0.2287
    124  O          9.2510   12.1290    8.5330 O.2    68  GLN68      -0.2864
    125  CB         7.7500   10.3730    6.5820 C.3    68  GLN68       0.0394
    126  CG         6.7940    9.2570    6.1240 C.3    68  GLN68       0.0908
    127  CD         5.9620    9.6450    4.9040 C.2    68  GLN68       0.2608
    128  OE1        5.2750   10.6700    4.8960 O.2    68  GLN68      -0.2717
    129  NE2        6.0180    8.8220    3.8690 N.am   68  GLN68      -0.0878
    130  N          9.0450   14.7930    7.2040 N.3    71  MET71      -0.1245
    131  CA         7.9930   15.3590    8.0380 C.3    71  MET71       0.1570
    132  C          8.6610   15.8410    9.3260 C.2    71  MET71       0.2261
    133  O          8.4320   16.9590    9.8080 O.2    71  MET71      -0.2867
    134  CB         6.9410   14.2980    8.3510 C.3    71  MET71       0.0387
    135  CG         5.8360   14.1600    7.2990 C.3    71  MET71       0.0595
    136  SD         6.3760   13.6730    5.6560 S.3    71  MET71      -0.1393
    137  CE         4.8300   13.6280    4.8150 C.3    71  MET71       0.0692
    138  N          9.8310    8.5280   14.7830 N.3    92  SER92      -0.1202
    139  CA         9.4470    7.2100   15.2700 C.3    92  SER92       0.2020
    140  C          9.3320    6.1390   14.1970 C.2    92  SER92       0.2619
    141  O          9.6070    6.3770   13.0280 O.2    92  SER92      -0.2717
    142  CB         8.1290    7.3100   16.0260 C.3    92  SER92       0.2103
    143  OG         7.2230    8.1540   15.3570 O.3    92  SER92      -0.2182
    144  N          8.9470    4.9450   14.6240 N.am   93  GLU93      -0.1965
    145  CA         8.7530    3.8280   13.7230 C.3    93  GLU93       0.1733
    146  C          7.2930    3.4250   13.8350 C.2    93  GLU93       0.2616
    147  O          6.6590    3.6780   14.8520 O.2    93  GLU93      -0.2715
    148  CB         9.6430    2.6550   14.1000 C.3    93  GLU93       0.0429
    149  CG        10.6920    2.3370   13.0490 C.3    93  GLU93       0.1163
    150  CD        11.9950    3.0680   13.2860 C.2    93  GLU93       0.3649
    151  OE1       12.7730    2.6400   14.1710 O.co2  93  GLU93      -0.2457
    152  OE2       12.2360    4.0810   12.5960 O.co2  93  GLU93      -0.2457
    153  N          6.7680    2.7900   12.7940 N.am   94  GLU94      -0.1977
    154  CA         5.3640    2.3940   12.7500 C.3    94  GLU94       0.1602
    155  C          4.7280    2.0360   14.0910 C.2    94  GLU94       0.2287
    156  O          3.8330    2.7350   14.5540 O.2    94  GLU94      -0.2864
    157  CB         5.1810    1.2480   11.7420 C.3    94  GLU94       0.0415
    158  CG         3.7190    0.8590   11.4510 C.3    94  GLU94       0.1163
    159  CD         2.8530    2.0290   10.9800 C.2    94  GLU94       0.3649
    160  OE1        3.2330    2.7040    9.9980 O.co2  94  GLU94      -0.2457
    161  OE2        1.7820    2.2680   11.5840 O.co2  94  GLU94      -0.2457
    162  N         -4.6400   13.2490   14.6160 N.3   110  ALA110     -0.1231
    163  CA        -5.4220   13.9450   13.6280 C.3   110  ALA110      0.1694
    164  C         -5.1520   13.4340   12.2310 C.2   110  ALA110      0.2592
    165  O         -4.0280   13.5190   11.7380 O.2   110  ALA110     -0.2718
    166  CB        -5.1560   15.4180   13.7090 C.3   110  ALA110      0.0304
    167  N         -6.2010   12.8920   11.6080 N.am  111  PHE111     -0.1962
    168  CA        -6.1320   12.3670   10.2520 C.3   111  PHE111      0.1771
    169  C         -4.9850   11.3990   10.0610 C.2   111  PHE111      0.2620
    170  O         -4.4430   11.2830    8.9600 O.2   111  PHE111     -0.2715
    171  CB        -5.9690   13.5180    9.2640 C.3   111  PHE111      0.0574
    172  CG        -6.9810   14.5910    9.4410 C.ar  111  PHE111     -0.0200
    173  CD1       -6.6600   15.7570   10.1430 C.ar  111  PHE111     -0.0042
    174  CD2       -8.2820   14.4190    8.9510 C.ar  111  PHE111     -0.0042
    175  CE1       -7.6090   16.7420   10.3590 C.ar  111  PHE111     -0.0003
    176  CE2       -9.2490   15.3960    9.1560 C.ar  111  PHE111     -0.0003
    177  CZ        -8.9170   16.5640    9.8650 C.ar  111  PHE111     -0.0000
    178  N         -4.6240   10.6910   11.1180 N.am  112  THR112     -0.1951
    179  CA        -3.4990    9.7780   11.0310 C.3   112  THR112      0.1897
    180  C         -3.8580    8.3070   11.2900 C.2   112  THR112      0.2313
    181  O         -3.1380    7.4040   10.8630 O.2   112  THR112     -0.2863
    182  CB        -2.3550   10.2840   11.9900 C.3   112  THR112      0.1794
    183  OG1       -1.2010    9.4550   11.8590 O.3   112  THR112     -0.2208
    184  CG2       -2.8150   10.2780   13.4320 C.3   112  THR112      0.0378
    185  N         -6.1730    6.3780    9.9510 N.3   114  HIS114     -0.1226
    186  CA        -6.3970    5.5750    8.7550 C.3   114  HIS114      0.1752
    187  C         -5.0920    5.3020    8.0000 C.2   114  HIS114      0.2596
    188  O         -5.1020    4.7660    6.8800 O.2   114  HIS114     -0.2718
    189  CB        -7.4310    6.2430    7.8210 C.3   114  HIS114      0.0759
    190  CG        -6.9620    7.5210    7.1920 C.ar  114  HIS114      0.0818
    191  ND1       -7.0970    8.7510    7.8040 N.ar  114  HIS114     -0.2268
    192  CD2       -6.3450    7.7540    6.0080 C.ar  114  HIS114      0.1154
    193  CE1       -6.5840    9.6860    7.0240 C.ar  114  HIS114      0.1986
    194  NE2       -6.1200    9.1080    5.9290 N.ar  114  HIS114     -0.2212
    195  N         -3.9660    5.6630    8.6180 N.am  115  GLU115     -0.1965
    196  CA        -2.6400    5.4510    8.0190 C.3   115  GLU115      0.1733
    197  C         -1.8230    4.3850    8.7520 C.2   115  GLU115      0.2616
    198  O         -0.8090    3.9020    8.2420 O.2   115  GLU115     -0.2715
    199  CB        -1.8530    6.7660    7.9920 C.3   115  GLU115      0.0429
    200  CG        -2.1770    7.6400    6.8100 C.3   115  GLU115      0.1163
    201  CD        -1.0840    8.6480    6.5190 C.2   115  GLU115      0.3649
    202  OE1        0.1020    8.2680    6.5910 O.co2 115  GLU115     -0.2457
    203  OE2       -1.4130    9.8080    6.1990 O.co2 115  GLU115     -0.2457
    204  N         -2.2690    4.0300    9.9510 N.am  116  LEU116     -0.1977
    205  CA        -1.5860    3.0210   10.7440 C.3   116  LEU116      0.1596
    206  C         -1.6760    1.6820   10.0310 C.2   116  LEU116      0.2287
    207  O         -2.7670    1.2270    9.6930 O.2   116  LEU116     -0.2864
    208  CB        -2.2480    2.8810   12.1170 C.3   116  LEU116      0.0297
    209  CG        -2.4570    4.1100   13.0030 C.3   116  LEU116      0.0022
    210  CD1       -3.3340    3.7230   14.1790 C.3   116  LEU116      0.0001
    211  CD2       -1.1200    4.6550   13.4850 C.3   116  LEU116      0.0001
    212  N         -0.0760   -0.7600   16.9980 N.3   122  PHE122     -0.1241
    213  CA         0.2770    0.6050   17.3470 C.3   122  PHE122      0.1605
    214  C         -0.3760    1.0610   18.6260 C.2   122  PHE122      0.2264
    215  O          0.2360    1.7860   19.4040 O.2   122  PHE122     -0.2867
    216  CB        -0.1070    1.5650   16.2250 C.3   122  PHE122      0.0534
    217  CG         0.2310    2.9950   16.5190 C.ar  122  PHE122     -0.0203
    218  CD1       -0.6760    3.8220   17.1800 C.ar  122  PHE122     -0.0042
    219  CD2        1.4580    3.5240   16.1160 C.ar  122  PHE122     -0.0042
    220  CE1       -0.3690    5.1590   17.4350 C.ar  122  PHE122     -0.0003
    221  CE2        1.7780    4.8540   16.3620 C.ar  122  PHE122     -0.0003
    222  CZ         0.8640    5.6780   17.0210 C.ar  122  PHE122     -0.0000
@<TRIPOS>BOND
     1     4     3    2
     2    12    13    2
     3    12    11    1
     4    19    20   ar
     5    19    17   ar
     6    20    18   ar
     7    17    15   ar
     8    11    10    1
     9    11    14    1
    10    18    16   ar
    11     3    10   am
    12     3     2    1
    13     1     2    1
    14    15    16   ar
    15    15    14    1
    16     5     2    1
    17     5     6    1
    18    21    22    1
    19   129   127   am
    20   137   136    1
    21     6     7    1
    22   128   127    2
    23   127   126    1
    24    22    25    1
    25    22    23    1
    26    26    27    1
    27    26    28    1
    28    26    25    1
    29   136   135    1
    30    35    36    1
    31    35    34    1
    32   194   192   ar
    33   194   193   ar
    34    23    24    2
    35   192   190   ar
    36    29    30    1
    37   126   125    1
    38     7     8    1
    39   203   201   ar
    40     8     9    1
    41   201   202   ar
    42   201   200    1
    43    36    37    2
    44   125   122    1
    45    34    33    1
    46   200   199    1
    47   188   187    2
    48    30    33    1
    49    30    31    1
    50   193   191   ar
    51   190   191   ar
    52   190   189    1
    53   130   131    1
    54   135   134    1
    55    37    38    1
    56    37    39    1
    57    74    71    1
    58   122   123    1
    59   122   121    1
    60   189   186    1
    61   199   196    1
    62   187   195   am
    63   187   186    1
    64   123   124    2
    65   196   195    1
    66   196   197    1
    67   131   134    1
    68   131   132    1
    69    31    32    2
    70   198   197    2
    71    71    70    1
    72    71    72    1
    73   197   204   am
    74   186   185    1
    75    70    68   am
    76   121   116   am
    77   117   116    2
    78    83    81   ar
    79    83    85   ar
    80   174   176   ar
    81   174   172   ar
    82   170   169    2
    83   176   177   ar
    84    68    69    2
    85    68    67    1
    86   171   172    1
    87   171   168    1
    88    81    80   ar
    89   132   133    2
    90   116   115    1
    91   172   173   ar
    92    85    84   ar
    93    67    66    1
    94   120   118    1
    95   207   206    2
    96   177   175   ar
    97   112   111   ar
    98    72    73    2
    99   204   205    1
   100   160   159   ar
   101   206   205    1
   102   169   168    1
   103   169   178   am
   104    80    79    1
   105    80    82   ar
   106   173   175   ar
   107   168   167    1
   108    84    82   ar
   109   118   115    1
   110   118   119    1
   111    79    76    1
   112   113   111   ar
   113   115   114    1
   114   111   110    1
   115   205   208    1
   116    66    61   am
   117   181   180    2
   118   159   158    1
   119   159   161   ar
   120   179   178    1
   121   179   180    1
   122   179   182    1
   123   114   108   am
   124   158   157    1
   125    76    75    1
   126    76    77    1
   127    97    96    1
   128   167   164   am
   129    62    61    2
   130   165   164    2
   131   157   154    1
   132    61    60    1
   133   183   182    1
   134   110   107    1
   135   182   184    1
   136   208   209    1
   137    58    57    2
   138   108   109    2
   139   108   107    1
   140   164   163    1
   141    96    95   ar
   142    96    94   ar
   143    95    93   ar
   144   152   150   ar
   145    57    56    1
   146    57    59   am
   147   107   106    1
   148   154   153    1
   149   154   155    1
   150    56    55    1
   151   153   146   am
   152    77    78    2
   153    77    86   am
   154    65    63    1
   155   209   211    1
   156   209   210    1
   157   141   140    2
   158   149   150    1
   159   149   148    1
   160    94    92   ar
   161    59    60    1
   162    60    63    1
   163   150   151   ar
   164    93    91   ar
   165    86    87    1
   166   163   166    1
   167   163   162    1
   168   145   146    1
   169   145   148    1
   170   145   144    1
   171   146   147    2
   172    63    64    1
   173    92    91   ar
   174   155   156    2
   175   106   100   am
   176    55    50   am
   177   140   144   am
   178   140   139    1
   179    91    90    1
   180   101   100    2
   181    51    50    2
   182   138   139    1
   183    87    90    1
   184    87    88    1
   185   100    99    1
   186    50    49    1
   187   139   142    1
   188   143   142    1
   189    53    52    1
   190    47    45   ar
   191    88    89    2
   192   219   221   ar
   193   219   217   ar
   194   216   217    1
   195   216   213    1
   196    99    98    1
   197    99   102    1
   198   221   222   ar
   199    52    49    1
   200    52    54    1
   201    49    48    1
   202    46    45   ar
   203   217   218   ar
   204    45    44    1
   205   212   213    1
   206   103   102    1
   207   103   105    1
   208   222   220   ar
   209    43    42    2
   210   102   104    1
   211   218   220   ar
   212    48    42   am
   213   213   214    1
   214    42    41    1
   215    44    41    1
   216    41    40    1
   217   214   215    2
