@<TRIPOS>MOLECULE
tmp/3dh2A00.pdb
 137 133 0 0 0
SMALL
GASTEIGER

@<TRIPOS>ATOM
      1  N         90.5860   10.6000   10.2710 N.3    31  ARG31      -0.1245
      2  CA        90.8890    9.1960   10.6050 C.3    31  ARG31       0.1563
      3  C         89.7850    8.2100   10.2730 C.2    31  ARG31       0.2260
      4  O         90.0000    6.9930   10.3900 O.2    31  ARG31      -0.2867
      5  CB        91.3170    9.0370   12.0660 C.3    31  ARG31       0.0307
      6  CG        92.8100    9.1760   12.2690 C.3    31  ARG31       0.0489
      7  CD        93.1640    9.3370   13.7270 C.3    31  ARG31       0.2205
      8  NE        92.7330   10.6190   14.2980 N.pl3  31  ARG31      -0.0865
      9  CZ        92.5130   10.8030   15.6000 C.cat  31  ARG31       0.5346
     10  NH1       92.6650    9.7920   16.4430 N.pl3  31  ARG31       0.1354
     11  NH2       92.1370   11.9830   16.0690 N.pl3  31  ARG31       0.1354
     12  N         90.1920    4.7520    7.9030 N.3    34  VAL34      -0.1231
     13  CA        91.5170    4.1500    7.8390 C.3    34  VAL34       0.1692
     14  C         91.4780    2.6430    8.0770 C.2    34  VAL34       0.2592
     15  O         90.6120    2.1350    8.7980 O.2    34  VAL34      -0.2718
     16  CB        92.6120    4.8200    8.7480 C.3    34  VAL34       0.0266
     17  CG1       92.7360    6.3260    8.4670 C.3    34  VAL34       0.0020
     18  CG2       92.3610    4.5480   10.1890 C.3    34  VAL34       0.0020
     19  N         92.4440    1.9480    7.4760 N.am   35  VAL35      -0.1966
     20  CA        92.5740    0.5030    7.6010 C.3    35  VAL35       0.1727
     21  C         92.6620    0.0520    9.0650 C.2    35  VAL35       0.2616
     22  O         93.4780    0.5520    9.8330 O.2    35  VAL35      -0.2715
     23  CB        93.7580   -0.0290    6.7570 C.3    35  VAL35       0.0290
     24  CG1       94.0840   -1.4710    7.1200 C.3    35  VAL35       0.0023
     25  CG2       93.4210    0.0750    5.2700 C.3    35  VAL35       0.0023
     26  N         91.7630   -0.8470    9.4480 N.am   36  PHE36      -0.1960
     27  CA        91.8960   -1.5260   10.6980 C.3    36  PHE36       0.1771
     28  C         92.6630   -2.8110   10.4260 C.2    36  PHE36       0.2619
     29  O         92.2700   -3.6070    9.5700 O.2    36  PHE36      -0.2715
     30  CB        90.5450   -1.8230   11.3190 C.3    36  PHE36       0.0574
     31  CG        90.6390   -2.5570   12.6190 C.ar   36  PHE36      -0.0200
     32  CD1       90.3710   -3.9400   12.6790 C.ar   36  PHE36      -0.0042
     33  CD2       91.0040   -1.8870   13.7830 C.ar   36  PHE36      -0.0042
     34  CE1       90.4460   -4.6460   13.8950 C.ar   36  PHE36      -0.0003
     35  CE2       91.0970   -2.5820   15.0050 C.ar   36  PHE36      -0.0003
     36  CZ        90.8200   -3.9560   15.0600 C.ar   36  PHE36      -0.0000
     37  N         93.7650   -3.0100   11.1470 N.am   37  GLU37      -0.1963
     38  CA        94.6870   -4.0610   10.7780 C.3    37  GLU37       0.1733
     39  C         94.3090   -5.4250   11.3240 C.2    37  GLU37       0.2616
     40  O         94.7760   -6.4390   10.8200 O.2    37  GLU37      -0.2715
     41  CB        96.1310   -3.6490   11.0670 C.3    37  GLU37       0.0429
     42  CG        96.6350   -2.6560   10.0190 C.3    37  GLU37       0.1163
     43  CD        97.9130   -1.9040   10.4000 C.2    37  GLU37       0.3649
     44  OE1       98.5870   -2.2820   11.3960 O.co2  37  GLU37      -0.2457
     45  OE2       98.2390   -0.9240    9.6790 O.co2  37  GLU37      -0.2457
     46  N         93.4280   -5.4530   12.3230 N.am   38  ASN38      -0.1958
     47  CA        92.9530   -6.7250   12.9240 C.3    38  ASN38       0.1819
     48  C         94.1180   -7.5670   13.4850 C.2    38  ASN38       0.2621
     49  O         94.1190   -8.7950   13.4080 O.2    38  ASN38      -0.2715
     50  CB        92.0730   -7.5050   11.9170 C.3    38  ASN38       0.1195
     51  CG        91.3960   -8.7130   12.5250 C.2    38  ASN38       0.2630
     52  OD1       90.9080   -8.6700   13.6450 O.2    38  ASN38      -0.2716
     53  ND2       91.3740   -9.8080   11.7800 N.am   38  ASN38      -0.0877
     54  N         95.0990   -6.8710   14.0620 N.am   39  ARG39      -0.1963
     55  CA        96.3720   -7.4530   14.5140 C.3    39  ARG39       0.1729
     56  C         96.1510   -8.6030   15.5130 C.2    39  ARG39       0.2616
     57  O         96.9020   -9.5910   15.5370 O.2    39  ARG39      -0.2715
     58  CB        97.2310   -6.3490   15.1430 C.3    39  ARG39       0.0348
     59  CG        98.6540   -6.1970   14.6020 C.3    39  ARG39       0.0492
     60  CD        98.7170   -5.4470   13.2660 C.3    39  ARG39       0.2205
     61  NE        98.9680   -6.3590   12.1460 N.pl3  39  ARG39      -0.0865
     62  CZ       100.1820   -6.7120   11.7090 C.cat  39  ARG39       0.5346
     63  NH1      101.2840   -6.2300   12.2830 N.pl3  39  ARG39       0.1354
     64  NH2      100.3060   -7.5550   10.6910 N.pl3  39  ARG39       0.1354
     65  N         95.1050   -8.4710   16.3200 N.am   40  GLU40      -0.1977
     66  CA        94.7930   -9.4430   17.3630 C.3    40  GLU40       0.1602
     67  C         93.9020  -10.5910   16.8510 C.2    40  GLU40       0.2287
     68  O         93.6300  -11.5320   17.5940 O.2    40  GLU40      -0.2864
     69  CB        94.1460   -8.7390   18.5730 C.3    40  GLU40       0.0415
     70  CG        94.9860   -7.6010   19.1990 C.3    40  GLU40       0.1163
     71  CD        94.7310   -6.2400   18.5630 C.2    40  GLU40       0.3649
     72  OE1       95.4760   -5.2830   18.8430 O.co2  40  GLU40      -0.2457
     73  OE2       93.7740   -6.1060   17.7800 O.co2  40  GLU40      -0.2457
     74  N         90.6090  -10.7070   16.3790 N.3    42  ARG42      -0.1245
     75  CA        89.2940  -10.8320   16.9910 C.3    42  ARG42       0.1563
     76  C         88.2080  -10.8800   15.9070 C.2    42  ARG42       0.2260
     77  O         87.0700  -11.2510   16.1750 O.2    42  ARG42      -0.2867
     78  CB        89.0400   -9.6780   17.9650 C.3    42  ARG42       0.0307
     79  CG        90.2100   -9.3900   18.8760 C.3    42  ARG42       0.0489
     80  CD        89.8070   -8.6900   20.1530 C.3    42  ARG42       0.2205
     81  NE        90.8560   -8.8980   21.1430 N.pl3  42  ARG42      -0.0865
     82  CZ        91.7100   -7.9740   21.5750 C.cat  42  ARG42       0.5346
     83  NH1       91.6350   -6.7220   21.1420 N.pl3  42  ARG42       0.1354
     84  NH2       92.6370   -8.3100   22.4650 N.pl3  42  ARG42       0.1354
     85  N         87.9740    1.3430    9.8380 N.3    53  GLU53      -0.1245
     86  CA        87.4060    1.8080   11.1050 C.3    53  GLU53       0.1567
     87  C         86.8160    3.2240   11.0200 C.2    53  GLU53       0.2260
     88  O         87.3080    4.0790   10.2510 O.2    53  GLU53      -0.2867
     89  CB        88.4210    1.6800   12.2470 C.3    53  GLU53       0.0388
     90  CG        89.7170    2.4280   12.0490 C.3    53  GLU53       0.1160
     91  CD        89.7530    3.7420   12.8090 C.2    53  GLU53       0.3649
     92  OE1       89.6070    4.8260   12.2050 O.co2  53  GLU53      -0.2457
     93  OE2       89.9400    3.6860   14.0350 O.co2  53  GLU53      -0.2457
     94  N         86.6430   11.7070   19.8370 N.3    64  ARG64      -0.1245
     95  CA        86.4570   10.3960   19.2490 C.3    64  ARG64       0.1563
     96  C         86.0940    9.3800   20.2990 C.2    64  ARG64       0.2260
     97  O         85.1420    8.6360   20.1020 O.2    64  ARG64      -0.2867
     98  CB        87.6860    9.9230   18.4950 C.3    64  ARG64       0.0307
     99  CG        87.8950   10.6300   17.2110 C.3    64  ARG64       0.0489
    100  CD        89.0650   10.0420   16.5320 C.3    64  ARG64       0.2205
    101  NE        88.6620    8.9840   15.6350 N.pl3  64  ARG64      -0.0865
    102  CZ        89.3410    7.8570   15.4680 C.cat  64  ARG64       0.5346
    103  NH1       90.4290    7.6290   16.1840 N.pl3  64  ARG64       0.1354
    104  NH2       88.9120    6.9560   14.6060 N.pl3  64  ARG64       0.1354
    105  N         83.6350    2.6600   18.1700 N.3    68  ARG68      -0.1245
    106  CA        84.1250    2.4300   16.8090 C.3    68  ARG68       0.1563
    107  C         83.1780    1.4890   16.0580 C.2    68  ARG68       0.2260
    108  O         82.4670    0.7030   16.6750 O.2    68  ARG68      -0.2867
    109  CB        85.5240    1.7840   16.8630 C.3    68  ARG68       0.0307
    110  CG        86.6450    2.5980   17.5180 C.3    68  ARG68       0.0489
    111  CD        86.9360    3.8610   16.7190 C.3    68  ARG68       0.2205
    112  NE        88.0490    4.6200   17.2680 N.pl3  68  ARG68      -0.0865
    113  CZ        87.9400    5.5630   18.1980 C.cat  68  ARG68       0.5346
    114  NH1       86.7640    5.8800   18.7020 N.pl3  68  ARG68       0.1354
    115  NH2       89.0240    6.1960   18.6310 N.pl3  68  ARG68       0.1354
    116  N         87.1300    0.3940   22.2830 N.3    83  HIS83      -0.1226
    117  CA        88.3850    0.7150   21.5880 C.3    83  HIS83       0.1752
    118  C         89.1070   -0.5490   21.1010 C.2    83  HIS83       0.2596
    119  O         90.2710   -0.8040   21.4350 O.2    83  HIS83      -0.2718
    120  CB        89.2630    1.5630   22.5160 C.3    83  HIS83       0.0759
    121  CG        90.5220    2.0670   21.8930 C.ar   83  HIS83       0.0818
    122  ND1       90.5310    2.9000   20.7940 N.ar   83  HIS83      -0.2268
    123  CD2       91.8160    1.8870   22.2430 C.ar   83  HIS83       0.1154
    124  CE1       91.7810    3.1980   20.4830 C.ar   83  HIS83       0.1986
    125  NE2       92.5790    2.6000   21.3500 N.ar   83  HIS83      -0.2212
    126  N         88.3730   -1.3470   20.3230 N.am   84  TYR84      -0.1976
    127  CA        88.8880   -2.5590   19.6590 C.3    84  TYR84       0.1639
    128  C         89.1890   -3.7430   20.5850 C.2    84  TYR84       0.2290
    129  O         89.7810   -4.7270   20.1470 O.2    84  TYR84      -0.2864
    130  CB        90.1080   -2.2460   18.7600 C.3    84  TYR84       0.0560
    131  CG        89.9760   -0.9830   17.9450 C.ar   84  TYR84      -0.0198
    132  CD1       88.9920   -0.8600   16.9460 C.ar   84  TYR84      -0.0009
    133  CD2       90.8410    0.1030   18.1770 C.ar   84  TYR84      -0.0009
    134  CE1       88.8800    0.3160   16.2040 C.ar   84  TYR84       0.0417
    135  CE2       90.7380    1.2780   17.4680 C.ar   84  TYR84       0.0417
    136  CZ        89.7660    1.3820   16.4760 C.ar   84  TYR84       0.1957
    137  OH        89.6790    2.5620   15.7760 O.3    84  TYR84      -0.2866
@<TRIPOS>BOND
     1    25    23    1
     2    23    24    1
     3    23    20    1
     4    19    20    1
     5    19    14   am
     6    20    21    1
     7    13    12    1
     8    13    14    1
     9    13    16    1
    10    14    15    2
    11    17    16    1
    12    16    18    1
    13    21    26   am
    14    21    22    2
    15    26    27    1
    16    29    28    2
    17    45    43   ar
    18    85    86    1
    19    42    43    1
    20    42    41    1
    21    88    87    2
    22     1     2    1
    23     3     4    2
    24     3     2    1
    25    43    44   ar
    26    28    27    1
    27    28    37   am
    28     2     5    1
    29    64    62    1
    30    27    30    1
    31    38    41    1
    32    38    37    1
    33    38    39    1
    34    40    39    2
    35    87    86    1
    36    86    89    1
    37    30    31    1
    38    39    46   am
    39    62    61    2
    40    62    63    1
    41    53    51   am
    42    50    51    1
    43    50    47    1
    44    90    89    1
    45    90    91    1
    46     5     6    1
    47    61    60    1
    48    92    91   ar
    49     6     7    1
    50    46    47    1
    51    51    52    2
    52    31    32   ar
    53    31    33   ar
    54    32    34   ar
    55    91    93   ar
    56    47    48    1
    57    60    59    1
    58    49    48    2
    59    48    54   am
    60     7     8    1
    61    33    35   ar
    62    34    36   ar
    63    54    55    1
    64     8     9    2
    65    55    58    1
    66    55    56    1
    67    59    58    1
    68   104   102    1
    69    35    36   ar
    70   102   101    2
    71   102   103    1
    72    56    57    2
    73    56    65   am
    74     9    11    1
    75     9    10    1
    76   101   100    1
    77   137   136    1
    78    76    77    2
    79    76    75    1
    80   107   108    2
    81   107   106    1
    82   134   136   ar
    83   134   132   ar
    84    65    66    1
    85    74    75    1
    86   136   135   ar
    87   100    99    1
    88   111   112    1
    89   111   110    1
    90   106   109    1
    91   106   105    1
    92    67    66    1
    93    67    68    2
    94   109   110    1
    95   132   131   ar
    96    75    78    1
    97    99    98    1
    98   112   113    2
    99    66    69    1
   100   135   133   ar
   101    73    71   ar
   102   131   133   ar
   103   131   130    1
   104    78    79    1
   105   113   115    1
   106   113   114    1
   107    98    95    1
   108    71    72   ar
   109    71    70    1
   110    69    70    1
   111   130   127    1
   112    79    80    1
   113    95    94    1
   114    95    96    1
   115   127   126    1
   116   127   128    1
   117    97    96    2
   118   129   128    2
   119    80    81    1
   120   126   118   am
   121   124   122   ar
   122   124   125   ar
   123   122   121   ar
   124   118   119    2
   125   118   117    1
   126    83    82    1
   127    81    82    2
   128   125   123   ar
   129    82    84    1
   130   117   116    1
   131   117   120    1
   132   121   123   ar
   133   121   120    1
