@<TRIPOS>MOLECULE
tmp/3dh7B01.pdb
 103 95 0 0 0
SMALL
GASTEIGER

@<TRIPOS>ATOM
      1  N         46.7820  -51.2460  -42.4730 N.3    59  THR59      -0.1218
      2  CA        47.8110  -52.2680  -42.7870 C.3    59  THR59       0.1862
      3  C         47.5060  -53.6880  -42.2930 C.2    59  THR59       0.2287
      4  O         46.3540  -54.1270  -42.3790 O.2    59  THR59      -0.2866
      5  CB        49.3410  -51.7190  -42.5150 C.3    59  THR59       0.1770
      6  OG1       50.3070  -52.4420  -43.3150 O.3    59  THR59      -0.2211
      7  CG2       49.7660  -51.5950  -40.9730 C.3    59  THR59       0.0375
      8  N         52.2440  -48.3270  -43.5240 N.3    81  SER81      -0.1217
      9  CA        53.7270  -48.3890  -43.4810 C.3    81  SER81       0.1889
     10  C         54.3820  -49.4580  -44.3800 C.2    81  SER81       0.2288
     11  O         53.9740  -50.6340  -44.3690 O.2    81  SER81      -0.2866
     12  CB        54.1930  -48.6030  -42.0260 C.3    81  SER81       0.2089
     13  OG        55.6110  -48.7490  -41.9170 O.3    81  SER81      -0.2183
     14  N         57.4230  -50.3340  -44.0110 N.3    83  ARG83      -0.1231
     15  CA        58.3670  -51.0820  -43.2350 C.3    83  ARG83       0.1694
     16  C         58.5830  -52.4690  -43.9040 C.2    83  ARG83       0.2591
     17  O         59.6760  -52.7580  -44.3930 O.2    83  ARG83      -0.2718
     18  CB        57.8180  -51.2510  -41.8140 C.3    83  ARG83       0.0321
     19  CG        58.8630  -51.0920  -40.7020 C.3    83  ARG83       0.0489
     20  CD        59.3070  -52.3870  -40.2250 C.3    83  ARG83       0.2205
     21  NE        58.4510  -52.9880  -39.2010 N.pl3  83  ARG83      -0.0865
     22  CZ        58.7610  -52.9810  -37.8960 C.cat  83  ARG83       0.5346
     23  NH1       59.8570  -52.3390  -37.4640 N.pl3  83  ARG83       0.1354
     24  NH2       58.0000  -53.6150  -36.9980 N.pl3  83  ARG83       0.1354
     25  N         57.5300  -53.2920  -43.9630 N.am   84  ILE84      -0.1980
     26  CA        57.6000  -54.6310  -44.5560 C.3    84  ILE84       0.1595
     27  C         58.2260  -54.4880  -45.8950 C.2    84  ILE84       0.2287
     28  O         59.2490  -55.0810  -46.1480 O.2    84  ILE84      -0.2864
     29  CB        56.2320  -55.3140  -44.7770 C.3    84  ILE84       0.0276
     30  CG1       55.2560  -55.0360  -43.5970 C.3    84  ILE84       0.0022
     31  CG2       56.4440  -56.8270  -44.9990 C.3    84  ILE84       0.0022
     32  CD1       54.5900  -53.5390  -43.5160 C.3    84  ILE84       0.0001
     33  N         56.1440  -44.3290  -43.2710 N.3   110  LEU110     -0.1231
     34  CA        57.2890  -44.9770  -42.6430 C.3   110  LEU110      0.1693
     35  C         57.4970  -44.8470  -41.0960 C.2   110  LEU110      0.2592
     36  O         57.7770  -45.8640  -40.4080 O.2   110  LEU110     -0.2718
     37  CB        58.5890  -44.6710  -43.4230 C.3   110  LEU110      0.0284
     38  CG        59.7050  -45.6850  -43.8590 C.3   110  LEU110      0.0019
     39  CD1       61.0850  -44.9820  -43.8830 C.3   110  LEU110      0.0001
     40  CD2       59.7650  -46.9840  -43.0690 C.3   110  LEU110      0.0001
     41  N         57.4170  -43.6720  -40.4880 N.am  111  GLY111     -0.1957
     42  CA        57.7290  -43.7480  -39.0560 C.3   111  GLY111      0.1869
     43  C         59.1120  -43.2130  -38.8240 C.2   111  GLY111      0.2309
     44  O         60.1100  -43.8380  -39.1640 O.2   111  GLY111     -0.2863
     45  N         61.1430  -42.9980  -36.6040 N.3   113  ALA113     -0.1231
     46  CA        62.0530  -44.0050  -35.9920 C.3   113  ALA113      0.1694
     47  C         62.7420  -45.0100  -36.9300 C.2   113  ALA113      0.2591
     48  O         63.8230  -45.4470  -36.6360 O.2   113  ALA113     -0.2718
     49  CB        61.3050  -44.7760  -34.9910 C.3   113  ALA113      0.0304
     50  N         62.1190  -45.4290  -38.0170 N.am  114  GLN114     -0.1979
     51  CA        62.7980  -46.2850  -38.9430 C.3   114  GLN114      0.1601
     52  C         64.0760  -45.6560  -39.4500 C.2   114  GLN114      0.2287
     53  O         64.9650  -46.3120  -39.8090 O.2   114  GLN114     -0.2864
     54  CB        61.8450  -46.6130  -40.0810 C.3   114  GLN114      0.0394
     55  CG        60.7570  -47.5660  -39.6200 C.3   114  GLN114      0.0908
     56  CD        61.3730  -48.6310  -38.7710 C.2   114  GLN114      0.2608
     57  OE1       62.0630  -49.5660  -39.2700 O.2   114  GLN114     -0.2717
     58  NE2       61.2040  -48.4740  -37.4520 N.am  114  GLN114     -0.0878
     59  N         55.6450  -41.0100  -39.8210 N.3   138  HIS138     -0.1241
     60  CA        54.8950  -40.9020  -38.5880 C.3   138  HIS138      0.1621
     61  C         55.7690  -41.1290  -37.3660 C.2   138  HIS138      0.2264
     62  O         56.4370  -42.1420  -37.2530 O.2   138  HIS138     -0.2867
     63  CB        53.7430  -41.8560  -38.6010 C.3   138  HIS138      0.0745
     64  CG        54.1350  -43.3040  -38.4290 C.ar  138  HIS138      0.0817
     65  ND1       54.8050  -44.0200  -39.3920 N.ar  138  HIS138     -0.2268
     66  CD2       53.8840  -44.1840  -37.4260 C.ar  138  HIS138      0.1154
     67  CE1       54.9600  -45.2640  -38.9800 C.ar  138  HIS138      0.1986
     68  NE2       54.3900  -45.3940  -37.8070 N.ar  138  HIS138     -0.2212
     69  N         55.7540  -41.5850  -33.2000 N.3   140  ASN140     -0.1240
     70  CA        54.7490  -42.1500  -32.2500 C.3   140  ASN140      0.1653
     71  C         55.2850  -42.8730  -30.9350 C.2   140  ASN140      0.2266
     72  O         55.0730  -44.0680  -30.7240 O.2   140  ASN140     -0.2867
     73  CB        53.8010  -43.0800  -33.0250 C.3   140  ASN140      0.1155
     74  CG        54.4880  -44.4180  -33.4130 C.2   140  ASN140      0.2627
     75  OD1       55.7570  -44.5110  -33.4780 O.2   140  ASN140     -0.2716
     76  ND2       53.6700  -45.4530  -33.6790 N.am  140  ASN140     -0.0877
     77  N         52.5440  -44.8200  -28.6500 N.3   143  GLN143     -0.1231
     78  CA        52.1840  -46.1150  -29.2720 C.3   143  GLN143      0.1698
     79  C         53.2950  -47.1000  -29.0900 C.2   143  GLN143      0.2592
     80  O         53.0330  -48.2440  -28.8750 O.2   143  GLN143     -0.2718
     81  CB        51.9030  -46.0350  -30.7620 C.3   143  GLN143      0.0381
     82  CG        51.5410  -47.4430  -31.2830 C.3   143  GLN143      0.0905
     83  CD        51.1260  -47.5420  -32.7780 C.2   143  GLN143      0.2608
     84  OE1       50.3670  -48.4190  -33.1290 O.2   143  GLN143     -0.2717
     85  NE2       51.6560  -46.6740  -33.6510 N.am  143  GLN143     -0.0878
     86  N         54.5370  -46.6440  -29.2010 N.am  144  GLU144     -0.1979
     87  CA        55.7190  -47.5100  -29.1670 C.3   144  GLU144      0.1602
     88  C         55.9490  -48.1440  -27.8530 C.2   144  GLU144      0.2287
     89  O         56.1090  -49.3380  -27.7640 O.2   144  GLU144     -0.2864
     90  CB        57.0060  -46.7560  -29.5180 C.3   144  GLU144      0.0415
     91  CG        57.3390  -46.8450  -30.9910 C.3   144  GLU144      0.1163
     92  CD        56.6740  -48.0740  -31.6600 C.2   144  GLU144      0.3649
     93  OE1       55.9880  -48.8870  -30.9700 O.co2 144  GLU144     -0.2457
     94  OE2       56.8280  -48.2430  -32.8790 O.co2 144  GLU144     -0.2457
     95  N         53.3830  -50.8230  -27.0520 N.3   147  GLN147     -0.1245
     96  CA        53.6670  -51.9930  -27.8600 C.3   147  GLN147      0.1566
     97  C         54.6960  -52.8880  -27.2410 C.2   147  GLN147      0.2260
     98  O         54.7620  -54.0400  -27.6240 O.2   147  GLN147     -0.2867
     99  CB        54.2550  -51.5270  -29.1710 C.3   147  GLN147      0.0367
    100  CG        54.5150  -52.5940  -30.1510 C.3   147  GLN147      0.0905
    101  CD        54.6450  -52.0270  -31.5730 C.2   147  GLN147      0.2608
    102  OE1       54.2250  -50.8810  -31.8540 O.2   147  GLN147     -0.2717
    103  NE2       55.2360  -52.8370  -32.4890 N.am  147  GLN147     -0.0878
@<TRIPOS>BOND
     1    28    27    2
     2    27    26    1
     3    31    29    1
     4    29    26    1
     5    29    30    1
     6    26    25    1
     7    17    16    2
     8    10    11    2
     9    10     9    1
    10    14    15    1
    11    25    16   am
    12    16    15    1
    13    39    38    1
    14    38    37    1
    15    38    40    1
    16    30    32    1
    17     8     9    1
    18     9    12    1
    19    37    34    1
    20     6     5    1
    21    33    34    1
    22    15    18    1
    23     2     5    1
    24     2     1    1
    25     2     3    1
    26    34    35    1
    27     5     7    1
    28     4     3    2
    29    12    13    1
    30    18    19    1
    31    35    41   am
    32    35    36    2
    33    19    20    1
    34    41    42    1
    35    20    21    1
    36    54    55    1
    37    54    51    1
    38    59    60    1
    39    53    52    2
    40    55    56    1
    41    52    51    1
    42    65    67   ar
    43    65    64   ar
    44    57    56    2
    45    21    22    2
    46    44    43    2
    47    42    43    1
    48    67    68   ar
    49    51    50    1
    50    56    58   am
    51    63    60    1
    52    63    64    1
    53    60    61    1
    54    64    66   ar
    55    50    47   am
    56    22    23    1
    57    22    24    1
    58    68    66   ar
    59    61    62    2
    60    47    48    2
    61    47    46    1
    62    45    46    1
    63    46    49    1
    64    76    74   am
    65    85    83   am
    66    75    74    2
    67    74    73    1
    68    69    70    1
    69    84    83    2
    70    73    70    1
    71    94    92   ar
    72    83    82    1
    73   103   101   am
    74    70    71    1
    75   102   101    2
    76    92    91    1
    77    92    93   ar
    78   101   100    1
    79    82    81    1
    80    91    90    1
    81    71    72    2
    82    81    78    1
    83   100    99    1
    84    90    87    1
    85    78    79    1
    86    78    77    1
    87    86    87    1
    88    86    79   am
    89    99    96    1
    90    87    88    1
    91    79    80    2
    92    96    97    1
    93    96    95    1
    94    88    89    2
    95    98    97    2
