@<TRIPOS>MOLECULE
tmp/3dh7B00.pdb
 208 199 0 0 0
SMALL
GASTEIGER

@<TRIPOS>ATOM
      1  N         46.4530  -55.9060  -35.1650 N.3     2  HIS2       -0.1226
      2  CA        45.8570  -54.5670  -35.0380 C.3     2  HIS2        0.1752
      3  C         44.5880  -54.3960  -35.8320 C.2     2  HIS2        0.2595
      4  O         43.6140  -53.8070  -35.3550 O.2     2  HIS2       -0.2718
      5  CB        46.8560  -53.5310  -35.5120 C.3     2  HIS2        0.0759
      6  CG        48.2250  -53.7420  -34.9520 C.ar    2  HIS2        0.0818
      7  ND1       49.0930  -54.6970  -35.4480 N.ar    2  HIS2       -0.2268
      8  CD2       48.8660  -53.1460  -33.9190 C.ar    2  HIS2        0.1154
      9  CE1       50.2180  -54.6620  -34.7570 C.ar    2  HIS2        0.1986
     10  NE2       50.1050  -53.7280  -33.8270 N.ar    2  HIS2       -0.2212
     11  N         44.6240  -54.9050  -37.0560 N.am    3  LEU3       -0.1980
     12  CA        43.4270  -55.0950  -37.8590 C.3     3  LEU3        0.1596
     13  C         42.3030  -55.7950  -37.0880 C.2     3  LEU3        0.2287
     14  O         41.1890  -55.2380  -36.9730 O.2     3  LEU3       -0.2864
     15  CB        43.7550  -55.9080  -39.1210 C.3     3  LEU3        0.0297
     16  CG        43.1080  -55.5030  -40.4660 C.3     3  LEU3        0.0022
     17  CD1       41.5900  -55.7720  -40.4510 C.3     3  LEU3        0.0001
     18  CD2       43.4960  -54.0340  -40.9400 C.3     3  LEU3        0.0001
     19  N         41.2260  -53.1050  -34.4310 N.3     6  CYS6       -0.1235
     20  CA        40.5560  -51.9190  -34.9030 C.3     6  CYS6        0.1677
     21  C         39.1440  -52.2500  -35.2310 C.2     6  CYS6        0.2270
     22  O         38.2380  -51.3960  -35.1190 O.2     6  CYS6       -0.2867
     23  CB        41.2600  -51.3450  -36.0780 C.3     6  CYS6        0.0956
     24  SG        42.7870  -50.7850  -35.4990 S.3     6  CYS6       -0.0801
     25  N         43.4980  -42.4640  -44.6520 N.3    56  GLY56      -0.1210
     26  CA        44.7730  -42.4010  -43.9250 C.3    56  GLY56       0.1956
     27  C         45.2810  -43.8080  -43.6930 C.2    56  GLY56       0.2612
     28  O         44.5120  -44.7600  -43.9530 O.2    56  GLY56      -0.2717
     29  N         46.5190  -43.9410  -43.1640 N.am   57  ALA57      -0.1965
     30  CA        47.2470  -45.2110  -43.1470 C.3    57  ALA57       0.1728
     31  C         46.5270  -46.4590  -42.5520 C.2    57  ALA57       0.2616
     32  O         45.9710  -46.4370  -41.4620 O.2    57  ALA57      -0.2715
     33  CB        48.5290  -45.0070  -42.4990 C.3    57  ALA57       0.0334
     34  N         46.5050  -47.5570  -43.2910 N.am   58  MET58      -0.1963
     35  CA        46.1110  -48.8070  -42.6460 C.3    58  MET58       0.1736
     36  C         47.1040  -50.0070  -42.8300 C.2    58  MET58       0.2617
     37  O         48.2560  -49.7770  -43.2270 O.2    58  MET58      -0.2715
     38  CB        44.6330  -49.0530  -42.8790 C.3    58  MET58       0.0427
     39  CG        43.7760  -48.1900  -41.8560 C.3    58  MET58       0.0599
     40  SD        42.1020  -47.7260  -42.4480 S.3    58  MET58      -0.1393
     41  CE        42.4360  -46.3120  -43.5450 C.3    58  MET58       0.0692
     42  N         46.7820  -51.2460  -42.4730 N.am   59  THR59      -0.1951
     43  CA        47.8110  -52.2680  -42.7870 C.3    59  THR59       0.1897
     44  C         47.5060  -53.6880  -42.2930 C.2    59  THR59       0.2313
     45  O         46.3540  -54.1270  -42.3790 O.2    59  THR59      -0.2863
     46  CB        49.3410  -51.7190  -42.5150 C.3    59  THR59       0.1794
     47  OG1       50.3070  -52.4420  -43.3150 O.3    59  THR59      -0.2208
     48  CG2       49.7660  -51.5950  -40.9730 C.3    59  THR59       0.0378
     49  N         52.2440  -48.3270  -43.5240 N.3    81  SER81      -0.1217
     50  CA        53.7270  -48.3890  -43.4810 C.3    81  SER81       0.1889
     51  C         54.3820  -49.4580  -44.3800 C.2    81  SER81       0.2288
     52  O         53.9740  -50.6340  -44.3690 O.2    81  SER81      -0.2866
     53  CB        54.1930  -48.6030  -42.0260 C.3    81  SER81       0.2089
     54  OG        55.6110  -48.7490  -41.9170 O.3    81  SER81      -0.2183
     55  N         54.3750  -44.2440  -46.4740 N.3   109  ASN109     -0.1240
     56  CA        54.4330  -44.2510  -45.0180 C.3   109  ASN109      0.1653
     57  C         55.6590  -44.8890  -44.3830 C.2   109  ASN109      0.2266
     58  O         56.1310  -45.9400  -44.8660 O.2   109  ASN109     -0.2867
     59  CB        53.2530  -45.0160  -44.4880 C.3   109  ASN109      0.1155
     60  CG        52.7130  -44.3610  -43.2920 C.2   109  ASN109      0.2627
     61  OD1       52.9620  -44.7720  -42.1580 O.2   109  ASN109     -0.2716
     62  ND2       52.0380  -43.2350  -43.5260 N.am  109  ASN109     -0.0877
     63  N         55.6450  -41.0100  -39.8210 N.3   138  HIS138     -0.1241
     64  CA        54.8950  -40.9020  -38.5880 C.3   138  HIS138      0.1621
     65  C         55.7690  -41.1290  -37.3660 C.2   138  HIS138      0.2264
     66  O         56.4370  -42.1420  -37.2530 O.2   138  HIS138     -0.2867
     67  CB        53.7430  -41.8560  -38.6010 C.3   138  HIS138      0.0745
     68  CG        54.1350  -43.3040  -38.4290 C.ar  138  HIS138      0.0817
     69  ND1       54.8050  -44.0200  -39.3920 N.ar  138  HIS138     -0.2268
     70  CD2       53.8840  -44.1840  -37.4260 C.ar  138  HIS138      0.1154
     71  CE1       54.9600  -45.2640  -38.9800 C.ar  138  HIS138      0.1986
     72  NE2       54.3900  -45.3940  -37.8070 N.ar  138  HIS138     -0.2212
     73  N         53.6540  -36.8810  -39.3800 N.3   173  LYS173     -0.1231
     74  CA        52.3980  -37.1530  -38.7690 C.3   173  LYS173      0.1693
     75  C         52.5770  -37.9360  -37.4590 C.2   173  LYS173      0.2592
     76  O         53.6990  -38.3060  -37.0610 O.2   173  LYS173     -0.2718
     77  CB        51.4580  -37.8470  -39.7370 C.3   173  LYS173      0.0285
     78  CG        51.9800  -39.1900  -40.1050 C.3   173  LYS173      0.0035
     79  CD        50.9060  -40.0180  -40.7380 C.3   173  LYS173      0.0206
     80  CE        49.7460  -40.2170  -39.8670 C.3   173  LYS173      0.1093
     81  NZ        49.4470  -41.6320  -39.9540 N.3   173  LYS173     -0.1314
     82  N         51.4660  -38.0850  -36.7500 N.am  174  GLU174     -0.1966
     83  CA        51.4300  -38.7770  -35.4780 C.3   174  GLU174      0.1733
     84  C         50.4660  -39.9550  -35.7800 C.2   174  GLU174      0.2616
     85  O         50.0500  -40.1560  -36.9380 O.2   174  GLU174     -0.2715
     86  CB        50.9740  -37.8440  -34.3410 C.3   174  GLU174      0.0429
     87  CG        51.7390  -37.9380  -33.0190 C.3   174  GLU174      0.1163
     88  CD        51.4740  -39.2280  -32.1410 C.2   174  GLU174      0.3649
     89  OE1       50.4380  -39.9170  -32.2640 O.co2 174  GLU174     -0.2457
     90  OE2       52.3110  -39.5730  -31.2710 O.co2 174  GLU174     -0.2457
     91  N         50.1500  -40.7660  -34.7850 N.am  175  VAL175     -0.1963
     92  CA        49.1440  -41.7750  -35.0200 C.3   175  VAL175      0.1727
     93  C         47.8850  -41.4600  -34.2100 C.2   175  VAL175      0.2616
     94  O         47.0610  -42.3530  -33.9290 O.2   175  VAL175     -0.2715
     95  CB        49.7020  -43.1980  -34.7770 C.3   175  VAL175      0.0290
     96  CG1       50.9180  -43.3810  -35.6830 C.3   175  VAL175      0.0023
     97  CG2       50.1030  -43.4190  -33.3200 C.3   175  VAL175      0.0023
     98  N         47.7370  -40.1940  -33.8200 N.am  176  GLY176     -0.1955
     99  CA        46.5850  -39.8100  -33.0230 C.3   176  GLY176      0.1869
    100  C         46.6710  -39.8950  -31.5170 C.2   176  GLY176      0.2309
    101  O         45.6400  -40.1600  -30.8240 O.2   176  GLY176     -0.2863
    102  N         50.7410  -33.7120  -40.3480 N.3   196  ASP196     -0.1239
    103  CA        49.4070  -34.0120  -40.0060 C.3   196  ASP196      0.1674
    104  C         49.4160  -34.1460  -38.4770 C.2   196  ASP196      0.2266
    105  O         50.3440  -34.6560  -37.8760 O.2   196  ASP196     -0.2867
    106  CB        48.9950  -35.2420  -40.7380 C.3   196  ASP196      0.1410
    107  CG        47.9650  -36.0200  -40.0140 C.2   196  ASP196      0.3668
    108  OD1       47.0150  -35.3840  -39.4570 O.co2 196  ASP196     -0.2456
    109  OD2       48.1340  -37.2850  -40.0000 O.co2 196  ASP196     -0.2456
    110  N         47.2240  -35.5380  -36.3770 N.3   198  ALA198     -0.1245
    111  CA        46.7860  -36.8260  -35.8580 C.3   198  ALA198      0.1562
    112  C         46.5920  -36.8410  -34.3170 C.2   198  ALA198      0.2260
    113  O         47.2970  -37.5410  -33.5640 O.2   198  ALA198     -0.2867
    114  CB        47.7430  -37.9580  -36.2790 C.3   198  ALA198      0.0290
    115  N         40.2520  -39.9240  -31.4080 N.3   202  GLY202     -0.1210
    116  CA        39.7120  -40.9650  -32.2580 C.3   202  GLY202      0.1956
    117  C         40.0970  -42.3420  -31.8220 C.2   202  GLY202      0.2612
    118  O         39.6190  -42.8030  -30.8070 O.2   202  GLY202     -0.2717
    119  N         40.9750  -42.9850  -32.5940 N.am  203  THR203     -0.1952
    120  CA        41.5540  -44.2610  -32.2080 C.3   203  THR203      0.1897
    121  C         42.8450  -44.0630  -31.3800 C.2   203  THR203      0.2313
    122  O         43.7130  -43.3160  -31.7390 O.2   203  THR203     -0.2863
    123  CB        41.8540  -45.1710  -33.4050 C.3   203  THR203      0.1794
    124  OG1       43.1430  -44.8240  -33.9050 O.3   203  THR203     -0.2208
    125  CG2       40.9020  -44.9820  -34.5200 C.3   203  THR203      0.0378
    126  N         46.1230  -45.2820  -30.4110 N.3   205  TRP205     -0.1241
    127  CA        47.0890  -46.3340  -30.7770 C.3   205  TRP205      0.1605
    128  C         47.6330  -47.1390  -29.5960 C.2   205  TRP205      0.2264
    129  O         47.5880  -48.3940  -29.6440 O.2   205  TRP205     -0.2867
    130  CB        48.0750  -45.9200  -31.9140 C.3   205  TRP205      0.0550
    131  CG        47.2940  -46.1780  -33.1700 C.ar  205  TRP205      0.0003
    132  CD1       46.4950  -45.2970  -33.8700 C.ar  205  TRP205      0.0946
    133  CD2       47.0660  -47.4740  -33.7650 C.ar  205  TRP205      0.0152
    134  NE1       45.8350  -45.9600  -34.8910 N.ar  205  TRP205     -0.2442
    135  CE2       46.1800  -47.2930  -34.8490 C.ar  205  TRP205      0.0810
    136  CE3       47.5540  -48.7650  -33.5000 C.ar  205  TRP205      0.0012
    137  CZ2       45.7860  -48.3620  -35.6650 C.ar  205  TRP205      0.0191
    138  CZ3       47.1810  -49.7830  -34.3190 C.ar  205  TRP205      0.0001
    139  CH2       46.2910  -49.5910  -35.3840 C.ar  205  TRP205      0.0015
    140  N         43.4790  -34.9840  -38.2190 N.3   248  SER248     -0.1202
    141  CA        42.9440  -36.3380  -38.2120 C.3   248  SER248      0.2020
    142  C         43.0730  -36.7760  -36.8070 C.2   248  SER248      0.2619
    143  O         44.0250  -36.4010  -36.1010 O.2   248  SER248     -0.2717
    144  CB        43.8200  -37.1880  -39.0620 C.3   248  SER248      0.2103
    145  OG        45.1250  -36.8340  -38.6530 O.3   248  SER248     -0.2182
    146  N         42.0850  -37.5300  -36.4030 N.am  249  GLY249     -0.1942
    147  CA        42.1120  -38.1530  -35.1540 C.3   249  GLY249      0.2014
    148  C         40.6600  -38.1310  -34.8120 C.2   249  GLY249      0.2639
    149  O         40.2710  -37.2390  -34.0990 O.2   249  GLY249     -0.2714
    150  N         39.8460  -39.0680  -35.3290 N.am  250  GLY250     -0.1954
    151  CA        38.4230  -39.0680  -35.0510 C.3   250  GLY250      0.1869
    152  C         37.7440  -37.7900  -35.5580 C.2   250  GLY250      0.2309
    153  O         36.8390  -37.2950  -34.9370 O.2   250  GLY250     -0.2863
    154  N         35.7450  -37.6580  -37.6840 N.3   252  TYR252     -0.1241
    155  CA        35.0110  -38.6430  -38.3850 C.3   252  TYR252      0.1605
    156  C         33.7530  -38.0900  -39.0280 C.2   252  TYR252      0.2264
    157  O         32.9590  -38.8440  -39.5770 O.2   252  TYR252     -0.2867
    158  CB        34.5720  -39.6910  -37.4190 C.3   252  TYR252      0.0534
    159  CG        35.6840  -40.4480  -36.7400 C.ar  252  TYR252     -0.0201
    160  CD1       36.9550  -40.5880  -37.3610 C.ar  252  TYR252     -0.0009
    161  CD2       35.4700  -41.0730  -35.4670 C.ar  252  TYR252     -0.0009
    162  CE1       38.0060  -41.3710  -36.7160 C.ar  252  TYR252      0.0417
    163  CE2       36.4690  -41.8160  -34.8440 C.ar  252  TYR252      0.0417
    164  CZ        37.7390  -41.9890  -35.4760 C.ar  252  TYR252      0.1957
    165  OH        38.7320  -42.7290  -34.8870 O.3   252  TYR252     -0.2866
    166  N         41.5160  -36.0670  -42.5520 N.3   269  ALA269     -0.1231
    167  CA        41.9070  -37.4740  -42.8460 C.3   269  ALA269      0.1694
    168  C         41.2270  -38.4110  -41.8620 C.2   269  ALA269      0.2592
    169  O         41.2830  -38.2480  -40.6300 O.2   269  ALA269     -0.2718
    170  CB        43.3870  -37.6540  -42.7640 C.3   269  ALA269      0.0304
    171  N         40.5500  -39.3800  -42.4120 N.am  270  VAL270     -0.1966
    172  CA        39.9190  -40.3630  -41.6120 C.3   270  VAL270      0.1727
    173  C         40.6750  -41.6600  -41.8000 C.2   270  VAL270      0.2616
    174  O         41.1670  -41.9390  -42.9040 O.2   270  VAL270     -0.2715
    175  CB        38.5100  -40.4830  -42.0570 C.3   270  VAL270      0.0290
    176  CG1       37.8290  -41.7040  -41.4010 C.3   270  VAL270      0.0023
    177  CG2       37.8520  -39.1450  -41.7560 C.3   270  VAL270      0.0023
    178  N         40.8300  -42.4370  -40.7290 N.am  271  ALA271     -0.1963
    179  CA        41.3470  -43.7730  -40.9350 C.3   271  ALA271      0.1728
    180  C         40.4250  -44.8300  -40.3880 C.2   271  ALA271      0.2616
    181  O         39.6390  -45.3830  -41.1150 O.2   271  ALA271     -0.2715
    182  CB        42.6990  -43.8860  -40.3660 C.3   271  ALA271      0.0334
    183  N         40.4690  -45.0870  -39.1050 N.am  272  ARG272     -0.1964
    184  CA        39.7760  -46.2660  -38.6240 C.3   272  ARG272      0.1714
    185  C         38.3480  -46.4150  -39.1540 C.2   272  ARG272      0.2458
    186  O         37.9520  -47.5470  -39.5100 O.2   272  ARG272     -0.2730
    187  CB        39.8290  -46.4230  -37.0880 C.3   272  ARG272      0.0347
    188  CG        39.1320  -47.6990  -36.6160 C.3   272  ARG272      0.0492
    189  CD        39.6100  -48.1960  -35.2550 C.3   272  ARG272      0.2205
    190  NE        38.5380  -48.0480  -34.2900 N.pl3 272  ARG272     -0.0865
    191  CZ        38.1150  -46.8770  -33.8100 C.cat 272  ARG272      0.5346
    192  NH1       38.6730  -45.7460  -34.1680 N.pl3 272  ARG272      0.1354
    193  NH2       37.1130  -46.8350  -32.9520 N.pl3 272  ARG272      0.1354
    194  N         37.5830  -45.3040  -39.2340 N.am  273  PRO273     -0.2727
    195  CA        36.1990  -45.4630  -39.6670 C.3   273  PRO273      0.1402
    196  C         36.1030  -46.0240  -41.1110 C.2   273  PRO273      0.2269
    197  O         35.1040  -46.6920  -41.4400 O.2   273  PRO273     -0.2865
    198  CB        35.6440  -44.0490  -39.6100 C.3   273  PRO273      0.0296
    199  CG        36.5890  -43.3140  -38.8400 C.3   273  PRO273      0.0237
    200  CD        37.9010  -43.9010  -38.9640 C.3   273  PRO273      0.0939
    201  N         38.0800  -48.4050  -42.2010 N.3   275  LEU275     -0.1245
    202  CA        38.3760  -49.8220  -42.1700 C.3   275  LEU275      0.1561
    203  C         37.2080  -50.7050  -42.5050 C.2   275  LEU275      0.2260
    204  O         37.2100  -51.3690  -43.4880 O.2   275  LEU275     -0.2867
    205  CB        38.9000  -50.2010  -40.8220 C.3   275  LEU275      0.0270
    206  CG        40.0510  -51.1900  -40.8790 C.3   275  LEU275      0.0019
    207  CD1       41.1470  -50.8880  -41.9330 C.3   275  LEU275      0.0001
    208  CD2       40.6180  -51.0610  -39.5250 C.3   275  LEU275      0.0001
@<TRIPOS>BOND
     1    55    56    1
     2    56    59    1
     3    56    57    1
     4    58    57    2
     5    25    26    1
     6    59    60    1
     7    51    52    2
     8    51    50    1
     9    28    27    2
    10    26    27    1
    11    27    29   am
    12    41    40    1
    13    62    60   am
    14    49    50    1
    15   204   203    2
    16    50    53    1
    17    47    46    1
    18    60    61    2
    19    34    35    1
    20    34    31   am
    21    37    36    2
    22    29    30    1
    23    30    31    1
    24    30    33    1
    25   174   173    2
    26    38    35    1
    27    38    39    1
    28   167   170    1
    29   167   166    1
    30   167   168    1
    31    36    35    1
    32    36    42   am
    33    43    46    1
    34    43    42    1
    35    43    44    1
    36    31    32    2
    37    46    48    1
    38   203   202    1
    39    40    39    1
    40   171   168   am
    41   171   172    1
    42    45    44    2
    43   201   202    1
    44   202   205    1
    45   175   177    1
    46   175   172    1
    47   175   176    1
    48    53    54    1
    49   207   206    1
    50   168   169    2
    51   173   172    1
    52   173   178   am
    53   197   196    2
    54   181   180    2
    55   196   195    1
    56    18    16    1
    57   179   178    1
    58   179   180    1
    59   179   182    1
    60   206   205    1
    61   206   208    1
    62    79    78    1
    63    79    80    1
    64   106   107    1
    65   106   103    1
    66    16    17    1
    67    16    15    1
    68   180   183   am
    69   102   103    1
    70    78    77    1
    71   107   109   ar
    72   107   108   ar
    73   103   104    1
    74    81    80    1
    75    63    64    1
    76    77    74    1
    77   195   198    1
    78   195   194    1
    79   198   199    1
    80   157   156    2
    81   186   185    2
    82    69    71   ar
    83    69    68   ar
    84    73    74    1
    85   194   185   am
    86   194   200    1
    87   185   184    1
    88    15    12    1
    89   183   184    1
    90   144   145    1
    91   144   141    1
    92   156   155    1
    93    71    72   ar
    94   200   199    1
    95    74    75    1
    96   184   187    1
    97    67    64    1
    98    67    68    1
    99    64    65    1
   100   104   105    2
   101    68    70   ar
   102   155   154    1
   103   155   158    1
   104   140   141    1
   105   141   142    1
   106    12    13    1
   107    12    11    1
   108    72    70   ar
   109    75    76    2
   110    75    82   am
   111   158   159    1
   112    65    66    2
   113   160   159   ar
   114   160   162   ar
   115    13    14    2
   116   187   188    1
   117    11     3   am
   118    85    84    2
   119   142   146   am
   120   142   143    2
   121    82    83    1
   122   159   161   ar
   123   162   164   ar
   124   188   189    1
   125   146   147    1
   126   110   111    1
   127   114   111    1
   128    23    24    1
   129    23    20    1
   130   111   112    1
   131     3     4    2
   132     3     2    1
   133    84    83    1
   134    84    91   am
   135    96    95    1
   136   137   139   ar
   137   137   135   ar
   138   152   151    1
   139   152   153    2
   140     5     2    1
   141     5     6    1
   142    83    86    1
   143   164   165    1
   144   164   163   ar
   145   161   163   ar
   146     7     6   ar
   147     7     9   ar
   148   139   138   ar
   149   150   151    1
   150   150   148   am
   151   189   190    1
   152    21    22    2
   153    21    20    1
   154     1     2    1
   155   147   148    1
   156    92    91    1
   157    92    95    1
   158    92    93    1
   159     6     8   ar
   160    20    19    1
   161   134   135   ar
   162   134   132   ar
   163   135   133   ar
   164   148   149    2
   165    95    97    1
   166     9    10   ar
   167   125   123    1
   168    86    87    1
   169   138   136   ar
   170   112   113    2
   171   190   191    2
   172    93    94    2
   173    93    98   am
   174   192   191    1
   175     8    10   ar
   176   124   123    1
   177   132   131   ar
   178    98    99    1
   179   191   193    1
   180   133   136   ar
   181   133   131   ar
   182   123   120    1
   183   131   130    1
   184    99   100    1
   185    87    88    1
   186   119   120    1
   187   119   117   am
   188    89    88   ar
   189   116   117    1
   190   116   115    1
   191   120   121    1
   192    88    90   ar
   193   130   127    1
   194   117   118    2
   195   122   121    2
   196   100   101    2
   197   127   126    1
   198   127   128    1
   199   129   128    2
