@<TRIPOS>MOLECULE
tmp/3dh8A00.pdb
 199 192 0 0 0
SMALL
GASTEIGER

@<TRIPOS>ATOM
      1  N        -20.9770   -3.9270   -5.3520 N.3    73  HIS73      -0.1226
      2  CA       -21.1650   -2.5900   -5.7650 C.3    73  HIS73       0.1752
      3  C        -22.5840   -2.2640   -6.1630 C.2    73  HIS73       0.2596
      4  O        -23.3100   -3.1370   -6.6300 O.2    73  HIS73      -0.2718
      5  CB       -20.2500   -2.2400   -6.8710 C.3    73  HIS73       0.0759
      6  CG       -18.8520   -2.0420   -6.4220 C.ar   73  HIS73       0.0818
      7  ND1      -17.8530   -1.8520   -7.3480 N.ar   73  HIS73      -0.2268
      8  CD2      -18.2930   -1.8920   -5.1840 C.ar   73  HIS73       0.1154
      9  CE1      -16.7050   -1.7070   -6.6950 C.ar   73  HIS73       0.1986
     10  NE2      -16.9470   -1.6690   -5.3810 N.ar   73  HIS73      -0.2212
     11  N        -23.0070   -1.0340   -5.8400 N.am   74  TYR74      -0.1962
     12  CA       -24.4470   -0.6820   -5.9550 C.3    74  TYR74       0.1771
     13  C        -25.0700   -0.9180   -7.3080 C.2    74  TYR74       0.2619
     14  O        -26.3160   -1.0840   -7.4250 O.2    74  TYR74      -0.2715
     15  CB       -24.7230    0.7660   -5.5510 C.3    74  TYR74       0.0574
     16  CG       -24.3130    1.7240   -6.5670 C.ar   74  TYR74      -0.0198
     17  CD1      -25.2350    2.2430   -7.4560 C.ar   74  TYR74      -0.0009
     18  CD2      -22.9840    2.1000   -6.7140 C.ar   74  TYR74      -0.0009
     19  CE1      -24.8720    3.0500   -8.4590 C.ar   74  TYR74       0.0417
     20  CE2      -22.6210    2.8950   -7.7540 C.ar   74  TYR74       0.0417
     21  CZ       -23.5800    3.4070   -8.6130 C.ar   74  TYR74       0.1957
     22  OH       -23.1750    4.2430   -9.6690 O.3    74  TYR74      -0.2866
     23  N        -24.2380   -0.8450   -8.3260 N.am   75  ASP75      -0.1971
     24  CA       -24.6490   -1.0340   -9.7550 C.3    75  ASP75       0.1709
     25  C        -24.6340   -2.4830  -10.2320 C.2    75  ASP75       0.2293
     26  O        -24.8500   -2.7290  -11.4000 O.2    75  ASP75      -0.2864
     27  CB       -23.8100   -0.1590  -10.6930 C.3    75  ASP75       0.1436
     28  CG       -22.2930   -0.3870  -10.5710 C.2    75  ASP75       0.3671
     29  OD1      -21.8010   -0.4650   -9.3930 O.co2  75  ASP75      -0.2456
     30  OD2      -21.6280   -0.4890  -11.6580 O.co2  75  ASP75      -0.2456
     31  N        -25.0280    2.7360    1.8860 N.3   110  VAL110     -0.1245
     32  CA       -24.2780    3.2850    0.7910 C.3   110  VAL110      0.1561
     33  C        -24.9530    2.8440   -0.5200 C.2   110  VAL110      0.2260
     34  O        -25.1830    3.6590   -1.4430 O.2   110  VAL110     -0.2867
     35  CB       -22.8260    2.8030    0.8370 C.3   110  VAL110      0.0252
     36  CG1      -22.0480    3.2000   -0.4760 C.3   110  VAL110      0.0019
     37  CG2      -22.1540    3.2770    2.1560 C.3   110  VAL110      0.0019
     38  N        -26.6080    5.5260   -3.1790 N.3   114  LEU114     -0.1245
     39  CA       -26.0950    5.7110   -4.5200 C.3   114  LEU114      0.1561
     40  C        -27.1650    5.3300   -5.5550 C.2   114  LEU114      0.2260
     41  O        -27.3040    6.0260   -6.5290 O.2   114  LEU114     -0.2867
     42  CB       -24.8290    4.9400   -4.7820 C.3   114  LEU114      0.0270
     43  CG       -23.6080    5.4750   -4.0230 C.3   114  LEU114      0.0019
     44  CD1      -22.5470    4.3660   -3.9530 C.3   114  LEU114      0.0001
     45  CD2      -23.1490    6.7950   -4.7400 C.3   114  LEU114      0.0001
     46  N        -10.6510   -5.3300   -7.9580 N.3   161  HIS161     -0.1241
     47  CA       -11.6310   -4.2940   -8.1710 C.3   161  HIS161      0.1621
     48  C        -12.3760   -3.9690   -6.8910 C.2   161  HIS161      0.2264
     49  O        -12.6410   -2.7640   -6.5870 O.2   161  HIS161     -0.2867
     50  CB       -12.6710   -4.7920   -9.2280 C.3   161  HIS161      0.0745
     51  CG       -13.7740   -3.8130   -9.4650 C.ar  161  HIS161      0.0817
     52  ND1      -13.5800   -2.5890  -10.0920 N.ar  161  HIS161     -0.2268
     53  CD2      -15.0830   -3.8360   -9.0870 C.ar  161  HIS161      0.1154
     54  CE1      -14.7340   -1.9600  -10.1380 C.ar  161  HIS161      0.1986
     55  NE2      -15.6480   -2.6900   -9.5290 N.ar  161  HIS161     -0.2212
     56  N        -16.5780   -6.4140  -13.2180 N.3   180  ASP180     -0.1239
     57  CA       -15.7420   -5.2210  -13.4100 C.3   180  ASP180      0.1674
     58  C        -14.2190   -5.6350  -13.1960 C.2   180  ASP180      0.2266
     59  O        -13.3370   -4.7200  -13.1180 O.2   180  ASP180     -0.2867
     60  CB       -16.1170   -4.1100  -12.4290 C.3   180  ASP180      0.1410
     61  CG       -17.4180   -3.4170  -12.7740 C.2   180  ASP180      0.3668
     62  OD1      -17.9010   -3.6320  -13.8760 O.co2 180  ASP180     -0.2456
     63  OD2      -17.9100   -2.7360  -11.8470 O.co2 180  ASP180     -0.2456
     64  N        -13.3890   -1.2790  -17.3180 N.3   184  ALA184     -0.1245
     65  CA       -14.5010   -0.8200  -18.2050 C.3   184  ALA184      0.1562
     66  C        -14.0360   -0.7940  -19.5870 C.2   184  ALA184      0.2260
     67  O        -13.0640   -0.1370  -19.8740 O.2   184  ALA184     -0.2867
     68  CB       -14.9270    0.6220  -17.7800 C.3   184  ALA184      0.0290
     69  N        -10.2460    0.2560  -19.6340 N.3   193  ARG193     -0.1245
     70  CA       -10.0080    1.2940  -18.6510 C.3   193  ARG193      0.1563
     71  C         -9.8680    0.5600  -17.2620 C.2   193  ARG193      0.2260
     72  O        -10.8540    0.0300  -16.7840 O.2   193  ARG193     -0.2867
     73  CB       -11.2160    2.2220  -18.5710 C.3   193  ARG193      0.0307
     74  CG       -11.5050    3.0200  -19.8250 C.3   193  ARG193      0.0489
     75  CD       -12.8650    3.7010  -19.8010 C.3   193  ARG193      0.2205
     76  NE       -13.0370    4.7190  -20.8300 N.pl3 193  ARG193     -0.0865
     77  CZ       -14.0480    5.5890  -20.8680 C.cat 193  ARG193      0.5346
     78  NH1      -14.9570    5.6490  -19.9190 N.pl3 193  ARG193      0.1354
     79  NH2      -14.1170    6.4840  -21.8190 N.pl3 193  ARG193      0.1354
     80  N        -10.1350   -0.5020  -13.4450 N.3   195  LEU195     -0.1245
     81  CA       -10.9670   -0.1100  -12.3250 C.3   195  LEU195      0.1561
     82  C        -10.4820   -0.7870  -11.0180 C.2   195  LEU195      0.2260
     83  O        -11.0650   -1.7630  -10.5360 O.2   195  LEU195     -0.2867
     84  CB       -12.4370   -0.4980  -12.6040 C.3   195  LEU195      0.0270
     85  CG       -13.1580    0.0070  -13.8390 C.3   195  LEU195      0.0019
     86  CD1      -14.5820   -0.6320  -13.9910 C.3   195  LEU195      0.0001
     87  CD2      -13.2180    1.5030  -13.6860 C.3   195  LEU195      0.0001
     88  N        -10.2330   -0.4980   -7.5360 N.3   197  PHE197     -0.1241
     89  CA       -10.8320    0.2480   -6.4290 C.3   197  PHE197      0.1605
     90  C        -10.5700   -0.3980   -5.0830 C.2   197  PHE197      0.2264
     91  O        -10.9820    0.1800   -4.0470 O.2   197  PHE197     -0.2867
     92  CB       -12.3450    0.5390   -6.6610 C.3   197  PHE197      0.0534
     93  CG       -12.6400    1.2950   -7.9210 C.ar  197  PHE197     -0.0203
     94  CD1      -13.7960    1.0430   -8.6180 C.ar  197  PHE197     -0.0042
     95  CD2      -11.7940    2.3130   -8.3760 C.ar  197  PHE197     -0.0042
     96  CE1      -14.0730    1.7580   -9.7540 C.ar  197  PHE197     -0.0003
     97  CE2      -12.0670    2.9860   -9.5840 C.ar  197  PHE197     -0.0003
     98  CZ       -13.1920    2.7130  -10.2400 C.ar  197  PHE197     -0.0000
     99  N        -20.4740   -3.8580  -17.7710 N.3   223  HIS223     -0.1241
    100  CA       -21.0200   -2.7190  -18.4200 C.3   223  HIS223      0.1621
    101  C        -20.6860   -2.8790  -19.9240 C.2   223  HIS223      0.2264
    102  O        -19.5200   -3.1520  -20.2940 O.2   223  HIS223     -0.2867
    103  CB       -20.3890   -1.4050  -17.8320 C.3   223  HIS223      0.0745
    104  CG       -20.5580   -1.3110  -16.3440 C.ar  223  HIS223      0.0817
    105  ND1      -21.7950   -1.0420  -15.7690 N.ar  223  HIS223     -0.2268
    106  CD2      -19.6720   -1.4770  -15.3310 C.ar  223  HIS223      0.1154
    107  CE1      -21.6420   -1.1170  -14.4420 C.ar  223  HIS223      0.1986
    108  NE2      -20.3730   -1.3880  -14.1460 N.ar  223  HIS223     -0.2212
    109  N        -12.5530    9.8420  -19.3480 N.3   271  TRP271     -0.1241
    110  CA       -13.3890    8.6320  -19.1920 C.3   271  TRP271      0.1605
    111  C        -14.7740    8.8240  -18.5370 C.2   271  TRP271      0.2264
    112  O        -15.6130    7.9090  -18.5780 O.2   271  TRP271     -0.2867
    113  CB       -12.6460    7.5410  -18.3590 C.3   271  TRP271      0.0550
    114  CG       -11.2600    7.2130  -18.7520 C.ar  271  TRP271      0.0003
    115  CD1      -10.6720    7.4670  -19.9160 C.ar  271  TRP271      0.0946
    116  CD2      -10.3250    6.4000  -18.0140 C.ar  271  TRP271      0.0152
    117  NE1       -9.4130    6.9740  -19.9460 N.ar  271  TRP271     -0.2442
    118  CE2       -9.1590    6.3270  -18.7750 C.ar  271  TRP271      0.0810
    119  CE3      -10.3660    5.7650  -16.7810 C.ar  271  TRP271      0.0012
    120  CZ2       -8.0250    5.6040  -18.3660 C.ar  271  TRP271      0.0191
    121  CZ3       -9.2230    5.0460  -16.3660 C.ar  271  TRP271      0.0001
    122  CH2       -8.0830    5.0060  -17.1260 C.ar  271  TRP271      0.0015
    123  N        -18.6110    8.1510  -20.3970 N.3   274  GLN274     -0.1231
    124  CA       -19.2040    6.8080  -20.6450 C.3   274  GLN274      0.1698
    125  C        -20.1700    6.3550  -19.5280 C.2   274  GLN274      0.2592
    126  O        -21.1500    5.7010  -19.8130 O.2   274  GLN274     -0.2718
    127  CB       -18.0890    5.8000  -20.8720 C.3   274  GLN274      0.0381
    128  CG       -18.5330    4.5200  -21.5160 C.3   274  GLN274      0.0905
    129  CD       -17.3560    3.7140  -22.0110 C.2   274  GLN274      0.2608
    130  OE1      -16.8440    4.0030  -23.1080 O.2   274  GLN274     -0.2717
    131  NE2      -16.9000    2.7130  -21.1980 N.am  274  GLN274     -0.0878
    132  N        -19.9090    6.7150  -18.2650 N.am  275  SER275     -0.1952
    133  CA       -20.6900    6.1600  -17.1360 C.3   275  SER275      0.1924
    134  C        -21.6510    7.1680  -16.5710 C.2   275  SER275      0.2314
    135  O        -22.2750    6.9180  -15.5470 O.2   275  SER275     -0.2863
    136  CB       -19.7590    5.7140  -15.9700 C.3   275  SER275      0.2116
    137  OG       -18.9180    6.7830  -15.4370 O.3   275  SER275     -0.2180
    138  N        -24.9830    6.1300  -15.1110 N.3   278  PHE278     -0.1227
    139  CA       -25.1670    5.2650  -13.9430 C.3   278  PHE278      0.1736
    140  C        -24.2240    5.5200  -12.7680 C.2   278  PHE278      0.2595
    141  O        -24.4330    4.9220  -11.7180 O.2   278  PHE278     -0.2718
    142  CB       -25.1280    3.7670  -14.3120 C.3   278  PHE278      0.0547
    143  CG       -23.7750    3.2800  -14.7580 C.ar  278  PHE278     -0.0202
    144  CD1      -22.8970    2.7630  -13.8360 C.ar  278  PHE278     -0.0042
    145  CD2      -23.3750    3.3380  -16.1080 C.ar  278  PHE278     -0.0042
    146  CE1      -21.6570    2.3090  -14.2000 C.ar  278  PHE278     -0.0003
    147  CE2      -22.1320    2.8860  -16.4640 C.ar  278  PHE278     -0.0003
    148  CZ       -21.2770    2.3900  -15.4990 C.ar  278  PHE278     -0.0000
    149  N        -23.2520    6.4230  -12.9200 N.am  279  LEU279     -0.1980
    150  CA       -22.3330    6.7810  -11.8250 C.3   279  LEU279      0.1596
    151  C        -22.5280    8.2830  -11.5630 C.2   279  LEU279      0.2287
    152  O        -22.2120    9.0740  -12.4080 O.2   279  LEU279     -0.2864
    153  CB       -20.8560    6.5800  -12.1910 C.3   279  LEU279      0.0297
    154  CG       -20.0730    5.2910  -11.9110 C.3   279  LEU279      0.0022
    155  CD1      -20.3380    4.2620  -12.9650 C.3   279  LEU279      0.0001
    156  CD2      -18.5710    5.6010  -11.9180 C.3   279  LEU279      0.0001
    157  N        -18.9900   10.6560   -7.8810 N.3   283  LEU283     -0.1231
    158  CA       -18.4810    9.2810   -7.6580 C.3   283  LEU283      0.1693
    159  C        -17.4330    8.8840   -8.6980 C.2   283  LEU283      0.2592
    160  O        -16.4410    8.2710   -8.3140 O.2   283  LEU283     -0.2718
    161  CB       -19.5950    8.2120   -7.5190 C.3   283  LEU283      0.0284
    162  CG       -19.0980    6.8450   -7.0550 C.3   283  LEU283      0.0019
    163  CD1      -18.2340    6.9130   -5.7680 C.3   283  LEU283      0.0001
    164  CD2      -20.2150    5.8410   -6.8430 C.3   283  LEU283      0.0001
    165  N        -17.6020    9.2370   -9.9780 N.am  284  HIS284     -0.1976
    166  CA       -16.6030    8.8550  -10.9590 C.3   284  HIS284      0.1656
    167  C        -15.2410    9.5310  -10.6320 C.2   284  HIS284      0.2291
    168  O        -14.2060    8.8630  -10.4420 O.2   284  HIS284     -0.2864
    169  CB       -17.0630    9.0820  -12.4190 C.3   284  HIS284      0.0771
    170  CG       -16.0780    8.5750  -13.4280 C.ar  284  HIS284      0.0820
    171  ND1      -15.0490    9.3530  -13.9330 N.ar  284  HIS284     -0.2267
    172  CD2      -15.8990    7.3340  -13.9440 C.ar  284  HIS284      0.1154
    173  CE1      -14.2710    8.6050  -14.7050 C.ar  284  HIS284      0.1986
    174  NE2      -14.7770    7.3800  -14.7490 N.ar  284  HIS284     -0.2212
    175  N        -13.9090    7.9570   -7.5690 N.3   287  SER287     -0.1202
    176  CA       -13.3500    6.6580   -7.9090 C.3   287  SER287      0.2020
    177  C        -11.9930    6.7390   -8.5910 C.2   287  SER287      0.2618
    178  O        -11.1080    5.9490   -8.2950 O.2   287  SER287     -0.2717
    179  CB       -14.3100    5.9010   -8.8420 C.3   287  SER287      0.2103
    180  OG       -15.5360    5.7020   -8.1890 O.3   287  SER287     -0.2182
    181  N        -11.8390    7.6710   -9.5330 N.am  288  MET288     -0.1979
    182  CA       -10.5230    7.9230  -10.1100 C.3   288  MET288      0.1605
    183  C         -9.4570    8.2060   -9.0610 C.2   288  MET288      0.2287
    184  O         -8.3850    7.5700   -9.0580 O.2   288  MET288     -0.2864
    185  CB       -10.5630    8.9700  -11.2120 C.3   288  MET288      0.0413
    186  CG       -11.5190    8.6480  -12.3510 C.3   288  MET288      0.0598
    187  SD       -11.1190    7.1700  -13.2690 S.3   288  MET288     -0.1393
    188  CE       -12.2580    5.8790  -12.5610 C.3   288  MET288      0.0692
    189  N         -9.4840    7.5180   -5.8980 N.3   290  ARG290     -0.1245
    190  CA        -9.2200    6.3590   -5.0920 C.3   290  ARG290      0.1563
    191  C         -8.3400    5.3420   -5.7560 C.2   290  ARG290      0.2260
    192  O         -7.4670    4.7650   -5.1320 O.2   290  ARG290     -0.2867
    193  CB       -10.5070    5.6470   -4.7730 C.3   290  ARG290      0.0307
    194  CG       -10.3800    4.3970   -3.8260 C.3   290  ARG290      0.0489
    195  CD       -11.6680    3.5560   -3.9290 C.3   290  ARG290      0.2205
    196  NE       -12.8350    4.3270   -4.4790 N.pl3 290  ARG290     -0.0865
    197  CZ       -14.1180    3.9320   -4.4930 C.cat 290  ARG290      0.5346
    198  NH1      -14.4830    2.7580   -3.9690 N.pl3 290  ARG290      0.1354
    199  NH2      -15.0450    4.7400   -5.0280 N.pl3 290  ARG290      0.1354
@<TRIPOS>BOND
     1   130   129    2
     2   129   128    1
     3   129   131   am
     4    79    77    1
     5   128   127    1
     6   127   124    1
     7    77    76    2
     8    77    78    1
     9    76    75    1
    10   124   123    1
    11   124   125    1
    12   102   101    2
    13   117   115   ar
    14   117   118   ar
    15   101   100    1
    16   115   114   ar
    17    67    66    2
    18    74    75    1
    19    74    73    1
    20   126   125    2
    21    69    70    1
    22    66    65    1
    23   125   132   am
    24   109   110    1
    25   110   111    1
    26   110   113    1
    27   118   120   ar
    28   118   116   ar
    29   114   113    1
    30   114   116   ar
    31    70    73    1
    32    70    71    1
    33   112   111    2
    34   100   103    1
    35   100    99    1
    36   120   122   ar
    37   132   133    1
    38    65    68    1
    39    65    64    1
    40   116   119   ar
    41   103   104    1
    42    71    72    2
    43   133   134    1
    44   133   136    1
    45   122   121   ar
    46   119   121   ar
    47   134   135    2
    48   147   145   ar
    49   147   148   ar
    50   104   105   ar
    51   104   106   ar
    52   145   143   ar
    53   136   137    1
    54   105   107   ar
    55   148   146   ar
    56   106   108   ar
    57   138   139    1
    58   143   142    1
    59   143   144   ar
    60   174   173   ar
    61   174   172   ar
    62   173   171   ar
    63   107   108   ar
    64   142   139    1
    65   146   144   ar
    66    86    85    1
    67   172   170   ar
    68   139   140    1
    69   171   170   ar
    70    62    61   ar
    71    85    87    1
    72    85    84    1
    73    80    81    1
    74   170   169    1
    75    57    56    1
    76    57    58    1
    77    57    60    1
    78   187   188    1
    79   187   186    1
    80    58    59    2
    81   155   154    1
    82   149   140   am
    83   149   150    1
    84    61    60    1
    85    61    63   ar
    86   140   141    2
    87    84    81    1
    88   169   166    1
    89   152   151    2
    90   186   185    1
    91    81    82    1
    92   153   154    1
    93   153   150    1
    94   156   154    1
    95   150   151    1
    96    30    28   ar
    97    26    25    2
    98   185   182    1
    99    82    83    2
   100   166   167    1
   101   166   165    1
   102    27    28    1
   103    27    24    1
   104   167   168    2
   105    28    29   ar
   106    98    96   ar
   107    98    97   ar
   108    25    24    1
   109    54    52   ar
   110    54    55   ar
   111   182   181    1
   112   182   183    1
   113    52    51   ar
   114   165   159   am
   115    24    23    1
   116    96    94   ar
   117    22    21    1
   118    97    95   ar
   119   181   177   am
   120    55    53   ar
   121    51    50    1
   122    51    53   ar
   123    50    47    1
   124   183   184    2
   125   179   180    1
   126   179   176    1
   127   159   160    2
   128   159   158    1
   129    94    93   ar
   130    21    19   ar
   131    21    20   ar
   132   177   178    2
   133   177   176    1
   134    19    17   ar
   135    95    93   ar
   136    23    13   am
   137    47    46    1
   138    47    48    1
   139    93    92    1
   140   176   175    1
   141   157   158    1
   142    20    18   ar
   143   158   161    1
   144    88    89    1
   145   161   162    1
   146    17    16   ar
   147    14    13    2
   148     7     9   ar
   149     7     6   ar
   150    13    12    1
   151   162   164    1
   152   162   163    1
   153    48    49    2
   154     5     6    1
   155     5     2    1
   156    18    16   ar
   157     9    10   ar
   158    92    89    1
   159     4     3    2
   160    16    15    1
   161    41    40    2
   162    89    90    1
   163     6     8   ar
   164     3    11   am
   165     3     2    1
   166    12    11    1
   167    12    15    1
   168   189   190    1
   169     2     1    1
   170   191   192    2
   171   191   190    1
   172    40    39    1
   173    10     8   ar
   174   190   193    1
   175    90    91    2
   176   199   197    1
   177    42    39    1
   178    42    43    1
   179   193   194    1
   180    45    43    1
   181    39    38    1
   182   197   196    2
   183   197   198    1
   184   196   195    1
   185    43    44    1
   186   195   194    1
   187    34    33    2
   188    33    32    1
   189    36    35    1
   190    32    35    1
   191    32    31    1
   192    35    37    1
