@<TRIPOS>MOLECULE
tmp/3dhaA00.pdb
 157 154 0 0 0
SMALL
GASTEIGER

@<TRIPOS>ATOM
      1  N        -21.0900  -10.4040    7.8030 N.3    20  LEU20      -0.1245
      2  CA       -21.7810   -9.5050    8.6790 C.3    20  LEU20       0.1561
      3  C        -23.1470   -9.2320    8.0330 C.2    20  LEU20       0.2260
      4  O        -23.2610   -9.2050    6.7950 O.2    20  LEU20      -0.2867
      5  CB       -21.0450   -8.2020    8.9010 C.3    20  LEU20       0.0270
      6  CG       -20.1480   -8.0120   10.1110 C.3    20  LEU20       0.0019
      7  CD1      -19.3490   -9.2220   10.5130 C.3    20  LEU20       0.0001
      8  CD2      -19.2110   -6.8090    9.8570 C.3    20  LEU20       0.0001
      9  N        -24.9210   -3.9540    9.5330 N.3    24  SER24      -0.1217
     10  CA       -23.6710   -3.4880   10.0860 C.3    24  SER24       0.1889
     11  C        -22.9660   -2.4800    9.1980 C.2    24  SER24       0.2288
     12  O        -22.1030   -1.7160    9.7180 O.2    24  SER24      -0.2866
     13  CB       -22.7390   -4.6840   10.3260 C.3    24  SER24       0.2089
     14  OG       -23.1980   -5.5320   11.4180 O.3    24  SER24      -0.2183
     15  N        -18.9250  -17.7710   16.5620 N.3    68  PHE68      -0.1241
     16  CA       -19.6890  -16.9580   17.5110 C.3    68  PHE68       0.1605
     17  C        -21.0200  -17.6090   17.9490 C.2    68  PHE68       0.2264
     18  O        -21.8250  -17.0070   18.6280 O.2    68  PHE68      -0.2867
     19  CB       -19.9000  -15.5270   17.0070 C.3    68  PHE68       0.0534
     20  CG       -18.5360  -14.8560   16.8970 C.ar   68  PHE68      -0.0203
     21  CD1      -17.8930  -14.6960   15.7080 C.ar   68  PHE68      -0.0042
     22  CD2      -17.8990  -14.3610   18.0280 C.ar   68  PHE68      -0.0042
     23  CE1      -16.6490  -14.0830   15.6650 C.ar   68  PHE68      -0.0003
     24  CE2      -16.6640  -13.7530   17.9810 C.ar   68  PHE68      -0.0003
     25  CZ       -16.0230  -13.5960   16.7720 C.ar   68  PHE68      -0.0000
     26  N        -23.3980  -13.4910   22.2640 N.3    72  PHE72      -0.1227
     27  CA       -24.3130  -12.3550   22.0480 C.3    72  PHE72       0.1736
     28  C        -24.3180  -11.9200   20.5940 C.2    72  PHE72       0.2595
     29  O        -25.1770  -11.2100   20.0810 O.2    72  PHE72      -0.2718
     30  CB       -23.9780  -11.1730   22.9730 C.3    72  PHE72       0.0547
     31  CG       -22.9880  -10.1350   22.5340 C.ar   72  PHE72      -0.0202
     32  CD1      -23.2720   -8.7600   22.5670 C.ar   72  PHE72      -0.0042
     33  CD2      -21.7350  -10.5130   22.0740 C.ar   72  PHE72      -0.0042
     34  CE1      -22.2910   -7.8800   22.1400 C.ar   72  PHE72      -0.0003
     35  CE2      -20.7470   -9.6260   21.6410 C.ar   72  PHE72      -0.0003
     36  CZ       -21.0320   -8.2620   21.6780 C.ar   72  PHE72      -0.0000
     37  N        -23.3650  -12.2610   19.7570 N.am   73  VAL73      -0.1980
     38  CA       -23.3070  -11.9780   18.3220 C.3    73  VAL73       0.1595
     39  C        -23.4530  -13.2060   17.4480 C.2    73  VAL73       0.2287
     40  O        -23.1560  -13.2570   16.2570 O.2    73  VAL73      -0.2864
     41  CB       -21.9920  -11.1210   18.3530 C.3    73  VAL73       0.0276
     42  CG1      -20.8560  -11.9950   17.9280 C.3    73  VAL73       0.0022
     43  CG2      -22.2020   -9.7350   17.8080 C.3    73  VAL73       0.0022
     44  N        -24.4520  -13.0500   13.6790 N.3    76  GLN76      -0.1231
     45  CA       -24.1980  -11.6870   13.2190 C.3    76  GLN76       0.1698
     46  C        -22.8070  -11.5290   12.6270 C.2    76  GLN76       0.2592
     47  O        -22.5100  -10.5600   11.9040 O.2    76  GLN76      -0.2718
     48  CB       -24.4020  -10.6590   14.3680 C.3    76  GLN76       0.0381
     49  CG       -25.8090  -10.6410   14.9040 C.3    76  GLN76       0.0905
     50  CD       -25.9420   -9.5930   16.0200 C.2    76  GLN76       0.2608
     51  OE1      -25.5850   -8.4510   15.8330 O.2    76  GLN76      -0.2717
     52  NE2      -26.5160   -9.9000   17.1560 N.am   76  GLN76      -0.0878
     53  N        -21.9280  -12.4580   12.9240 N.am   77  ILE77      -0.1980
     54  CA       -20.5370  -12.4480   12.4920 C.3    77  ILE77       0.1595
     55  C        -20.1620  -13.9010   12.1570 C.2    77  ILE77       0.2287
     56  O        -20.2450  -14.7630   13.0380 O.2    77  ILE77      -0.2864
     57  CB       -19.5680  -11.9690   13.5760 C.3    77  ILE77       0.0276
     58  CG1      -19.9790  -10.5900   14.1100 C.3    77  ILE77       0.0022
     59  CG2      -18.1240  -11.9620   13.0300 C.3    77  ILE77       0.0022
     60  CD1      -19.0980  -10.1220   15.2500 C.3    77  ILE77       0.0001
     61  N         -8.5260   -3.8810   18.2210 N.3   109  LEU109     -0.1231
     62  CA        -8.3800   -5.2440   18.7180 C.3   109  LEU109      0.1693
     63  C         -9.5980   -6.0930   18.4750 C.2   109  LEU109      0.2592
     64  O         -9.7620   -7.1730   19.0920 O.2   109  LEU109     -0.2718
     65  CB        -7.8900   -5.2660   20.1760 C.3   109  LEU109      0.0284
     66  CG        -6.5310   -4.6320   20.4130 C.3   109  LEU109      0.0019
     67  CD1       -6.2240   -4.6170   21.9060 C.3   109  LEU109      0.0001
     68  CD2       -5.3890   -5.2860   19.6550 C.3   109  LEU109      0.0001
     69  N        -10.4580   -5.6950   17.5090 N.am  110  HIS110     -0.1962
     70  CA       -11.4880   -6.6210   17.0310 C.3   110  HIS110      0.1787
     71  C        -10.8280   -7.8710   16.4590 C.2   110  HIS110      0.2620
     72  O         -9.6850   -7.8270   15.9480 O.2   110  HIS110     -0.2715
     73  CB       -12.3620   -5.9060   16.0140 C.3   110  HIS110      0.0785
     74  CG       -13.3270   -4.9350   16.6280 C.ar  110  HIS110      0.0821
     75  ND1      -14.0420   -4.0570   15.8490 N.ar  110  HIS110     -0.2267
     76  CD2      -13.6390   -4.7260   17.9290 C.ar  110  HIS110      0.1154
     77  CE1      -14.7970   -3.3300   16.6800 C.ar  110  HIS110      0.1986
     78  NE2      -14.5850   -3.7030   17.9450 N.ar  110  HIS110     -0.2212
     79  N        -11.6120   -8.9410   16.4150 N.am  111  PHE111     -0.1960
     80  CA       -11.0470  -10.2520   16.0660 C.3   111  PHE111      0.1771
     81  C        -10.5080  -10.3640   14.6390 C.2   111  PHE111      0.2619
     82  O         -9.6430  -11.2030   14.3690 O.2   111  PHE111     -0.2715
     83  CB       -12.0770  -11.3780   16.3610 C.3   111  PHE111      0.0574
     84  CG       -12.9390  -11.7270   15.1810 C.ar  111  PHE111     -0.0200
     85  CD1      -12.7580  -12.9540   14.5910 C.ar  111  PHE111     -0.0042
     86  CD2      -13.8980  -10.8800   14.6260 C.ar  111  PHE111     -0.0042
     87  CE1      -13.4780  -13.3650   13.4640 C.ar  111  PHE111     -0.0003
     88  CE2      -14.5950  -11.2410   13.4450 C.ar  111  PHE111     -0.0003
     89  CZ       -14.3490  -12.4670   12.8840 C.ar  111  PHE111     -0.0000
     90  N        -11.0490   -9.5320   13.7410 N.am  112  ASP112     -0.1971
     91  CA       -10.6390   -9.5270   12.3390 C.3   112  ASP112      0.1709
     92  C         -9.4320   -8.6700   12.0900 C.2   112  ASP112      0.2293
     93  O         -8.9860   -8.6170   10.9460 O.2   112  ASP112     -0.2864
     94  CB       -11.8620   -9.1640   11.4630 C.3   112  ASP112      0.1436
     95  CG       -12.5410   -7.8390   11.8100 C.2   112  ASP112      0.3671
     96  OD1      -12.8470   -7.0890   10.8470 O.co2 112  ASP112     -0.2456
     97  OD2      -12.8470   -7.5780   12.9890 O.co2 112  ASP112     -0.2456
     98  N        -16.5390   -8.4700   25.5770 N.3   140  GLU140     -0.1231
     99  CA       -16.8570   -8.5250   24.1440 C.3   140  GLU140      0.1699
    100  C        -15.6180   -8.8610   23.3250 C.2   140  GLU140      0.2592
    101  O        -15.7000   -9.4070   22.2170 O.2   140  GLU140     -0.2718
    102  CB       -17.4700   -7.2200   23.6580 C.3   140  GLU140      0.0402
    103  CG       -18.8170   -6.9450   24.3010 C.3   140  GLU140      0.1161
    104  CD       -18.8780   -6.5470   25.7720 C.2   140  GLU140      0.3649
    105  OE1      -17.8740   -6.1640   26.4170 O.co2 140  GLU140     -0.2457
    106  OE2      -20.0290   -6.5610   26.2910 O.co2 140  GLU140     -0.2457
    107  N        -14.4100   -8.4940   23.8000 N.am  141  TYR141     -0.1962
    108  CA       -13.1870   -8.8050   23.0150 C.3   141  TYR141      0.1771
    109  C        -12.7520  -10.2310   23.2060 C.2   141  TYR141      0.2622
    110  O        -12.8260  -10.7660   24.3300 O.2   141  TYR141     -0.2715
    111  CB       -12.0900   -7.8510   23.5040 C.3   141  TYR141      0.0574
    112  CG       -12.1570   -6.4470   22.9200 C.ar  141  TYR141     -0.0198
    113  CD1      -12.9250   -5.4760   23.5080 C.ar  141  TYR141     -0.0009
    114  CD2      -11.4590   -6.0950   21.7680 C.ar  141  TYR141     -0.0009
    115  CE1      -12.9950   -4.1750   22.9720 C.ar  141  TYR141      0.0417
    116  CE2      -11.5170   -4.8450   21.2350 C.ar  141  TYR141      0.0417
    117  CZ       -12.2840   -3.8910   21.8410 C.ar  141  TYR141      0.1957
    118  OH       -12.3330   -2.6040   21.3390 O.3   141  TYR141     -0.2866
    119  N        -12.2380  -10.8440   22.1370 N.am  142  MET142     -0.1931
    120  CA       -11.7150  -12.2060   22.2440 C.3   142  MET142      0.1821
    121  C        -10.3880  -12.1880   22.9810 C.2   142  MET142      0.2332
    122  O         -9.5170  -11.3280   22.7460 O.2   142  MET142     -0.2860
    123  CB       -11.5480  -12.7910   20.8700 C.2   142  MET142      0.0096
    124  CG       -12.7770  -13.0020   20.0450 C.2   142  MET142      0.0285
    125  SD       -12.5610  -14.0180   18.6130 S.3   142  MET142     -0.1125
    126  CE       -12.4700  -15.6540   19.2420 C.3   142  MET142      0.0742
    127  N        -15.7140    3.5530   16.2930 N.3   173  HIS173     -0.1241
    128  CA       -16.0440    2.1620   15.9350 C.3   173  HIS173      0.1621
    129  C        -15.5950    1.2300   17.0450 C.2   173  HIS173      0.2264
    130  O        -16.2840    0.2410   17.3270 O.2   173  HIS173     -0.2867
    131  CB       -15.3510    1.8190   14.6410 C.3   173  HIS173      0.0745
    132  CG       -15.3930    0.3530   14.3170 C.ar  173  HIS173      0.0817
    133  ND1      -16.5110   -0.3360   13.9050 N.ar  173  HIS173     -0.2268
    134  CD2      -14.3990   -0.5630   14.3720 C.ar  173  HIS173      0.1154
    135  CE1      -16.1850   -1.6250   13.7110 C.ar  173  HIS173      0.1986
    136  NE2      -14.8760   -1.8200   13.9400 N.ar  173  HIS173     -0.2212
    137  N        -16.4650    1.6570    7.3170 N.3   198  TYR198     -0.1241
    138  CA       -16.4360    0.4050    6.5980 C.3   198  TYR198      0.1605
    139  C        -16.5040    0.6080    5.0990 C.2   198  TYR198      0.2264
    140  O        -15.8210   -0.0930    4.3500 O.2   198  TYR198     -0.2867
    141  CB       -17.6570   -0.4630    6.9560 C.3   198  TYR198      0.0534
    142  CG       -17.6180   -1.2120    8.2560 C.ar  198  TYR198     -0.0201
    143  CD1      -16.5750   -1.2970    9.1290 C.ar  198  TYR198     -0.0009
    144  CD2      -18.7350   -1.9060    8.6140 C.ar  198  TYR198     -0.0009
    145  CE1      -16.6080   -2.0360   10.3300 C.ar  198  TYR198      0.0417
    146  CE2      -18.7920   -2.6550    9.7470 C.ar  198  TYR198      0.0417
    147  CZ       -17.7750   -2.7500   10.6250 C.ar  198  TYR198      0.1957
    148  OH       -17.8880   -3.5140   11.7380 O.3   198  TYR198     -0.2866
    149  N        -21.7050   -0.2660   12.2500 N.3   210  ALA210     -0.1231
    150  CA       -21.4950   -0.9540   13.5220 C.3   210  ALA210      0.1694
    151  C        -20.3590   -0.2500   14.2850 C.2   210  ALA210      0.2592
    152  O        -19.3230    0.0620   13.6520 O.2   210  ALA210     -0.2718
    153  CB       -21.1720   -2.3840   13.2340 C.3   210  ALA210      0.0304
    154  N        -20.5520   -0.0350   15.5520 N.am  211  GLY211     -0.1957
    155  CA       -19.4540    0.4560   16.3410 C.3   211  GLY211      0.1869
    156  C        -19.9040    0.6920   17.7450 C.2   211  GLY211      0.2309
    157  O        -21.0750    0.7060   18.1150 O.2   211  GLY211     -0.2863
@<TRIPOS>BOND
     1   140   139    2
     2   139   138    1
     3   138   141    1
     4   138   137    1
     5     4     3    2
     6   141   142    1
     7     1     2    1
     8     3     2    1
     9   142   144   ar
    10   142   143   ar
    11   144   146   ar
    12     2     5    1
    13     5     6    1
    14   143   145   ar
    15    11    12    2
    16    11    10    1
    17     9    10    1
    18   146   147   ar
    19     8     6    1
    20    10    13    1
    21     6     7    1
    22    13    14    1
    23   145   147   ar
    24   147   148    1
    25    96    95   ar
    26    93    92    2
    27    94    95    1
    28    94    91    1
    29    95    97   ar
    30    47    46    2
    31    92    91    1
    32    55    54    1
    33    55    56    2
    34   149   150    1
    35    91    90    1
    36    54    53    1
    37    54    57    1
    38    46    53   am
    39    46    45    1
    40    89    88   ar
    41    89    87   ar
    42    59    57    1
    43    45    44    1
    44    45    48    1
    45   153   150    1
    46    88    86   ar
    47    87    85   ar
    48   150   151    1
    49    57    58    1
    50   152   151    2
    51   135   133   ar
    52   135   136   ar
    53    90    81   am
    54   133   132   ar
    55   136   134   ar
    56    58    60    1
    57   151   154   am
    58   132   134   ar
    59   132   131    1
    60    48    49    1
    61    82    81    2
    62    85    84   ar
    63    86    84   ar
    64    81    80    1
    65   131   128    1
    66    49    50    1
    67    84    83    1
    68   154   155    1
    69    23    21   ar
    70    23    25   ar
    71    21    20   ar
    72    51    50    2
    73    75    74   ar
    74    75    77   ar
    75   128   127    1
    76   128   129    1
    77    72    71    2
    78    73    74    1
    79    73    70    1
    80    50    52   am
    81    80    83    1
    82    80    79    1
    83    40    39    2
    84   155   156    1
    85    79    71   am
    86    71    70    1
    87    15    16    1
    88    74    76   ar
    89    77    78   ar
    90    25    24   ar
    91    20    19    1
    92    20    22   ar
    93    19    16    1
    94    70    69    1
    95   129   130    2
    96    39    38    1
    97    69    63   am
    98    16    17    1
    99   156   157    2
   100    43    41    1
   101    42    41    1
   102    76    78   ar
   103    17    18    2
   104    24    22   ar
   105    61    62    1
   106    38    41    1
   107    38    37    1
   108    63    62    1
   109    63    64    2
   110   125   126    1
   111   125   124    1
   112    62    65    1
   113    68    66    1
   114    37    28   am
   115   124   123    2
   116    29    28    2
   117    65    66    1
   118    66    67    1
   119    28    27    1
   120   123   120    1
   121   116   114   ar
   122   116   117   ar
   123   118   117    1
   124    35    36   ar
   125    35    33   ar
   126    36    34   ar
   127   114   112   ar
   128   117   115   ar
   129    27    26    1
   130    27    30    1
   131    33    31   ar
   132   119   120    1
   133   119   109   am
   134    34    32   ar
   135   101   100    2
   136   120   121    1
   137    31    32   ar
   138    31    30    1
   139   122   121    2
   140   112   111    1
   141   112   113   ar
   142   115   113   ar
   143   108   109    1
   144   108   111    1
   145   108   107    1
   146   109   110    2
   147   100   107   am
   148   100    99    1
   149   102    99    1
   150   102   103    1
   151    99    98    1
   152   103   104    1
   153   104   106   ar
   154   104   105   ar
