@<TRIPOS>MOLECULE
tmp/3dhbA00.pdb
 148 144 0 0 0
SMALL
GASTEIGER

@<TRIPOS>ATOM
      1  N        -14.8450  -12.3460    5.7420 N.3    14  CYS14      -0.1235
      2  CA       -15.7460  -12.4840    6.8790 C.3    14  CYS14       0.1677
      3  C        -17.1380  -12.0990    6.4230 C.2    14  CYS14       0.2270
      4  O        -17.3140  -11.0590    5.7870 O.2    14  CYS14      -0.2867
      5  CB       -15.2790  -11.5860    8.0490 C.3    14  CYS14       0.0956
      6  SG       -16.2060  -11.9480    9.5530 S.3    14  CYS14      -0.0801
      7  N        -20.6990  -10.6460    7.1810 N.3    16  LEU16      -0.1245
      8  CA       -21.3430   -9.7600    8.1540 C.3    16  LEU16       0.1561
      9  C        -22.7300   -9.4350    7.6250 C.2    16  LEU16       0.2260
     10  O        -22.8990   -9.2900    6.4170 O.2    16  LEU16      -0.2867
     11  CB       -20.5760   -8.4490    8.2770 C.3    16  LEU16       0.0270
     12  CG       -19.3870   -8.3050    9.2080 C.3    16  LEU16       0.0019
     13  CD1      -19.1080   -6.8200    9.3080 C.3    16  LEU16       0.0001
     14  CD2      -19.6730   -8.8970   10.5870 C.3    16  LEU16       0.0001
     15  N        -17.2320   -9.9850    3.1280 N.3    33  LEU33      -0.1245
     16  CA       -16.3530   -8.8190    3.1380 C.3    33  LEU33       0.1561
     17  C        -14.8900   -9.2270    3.1710 C.2    33  LEU33       0.2260
     18  O        -14.5440  -10.2500    3.7660 O.2    33  LEU33      -0.2867
     19  CB       -16.6370   -7.9910    4.4090 C.3    33  LEU33       0.0270
     20  CG       -18.0590   -7.4350    4.5480 C.3    33  LEU33       0.0019
     21  CD1      -18.1940   -6.6940    5.8740 C.3    33  LEU33       0.0001
     22  CD2      -18.4080   -6.5320    3.3860 C.3    33  LEU33       0.0001
     23  N        -21.8570  -12.8870   12.4000 N.3    73  ILE73      -0.1245
     24  CA       -20.4490  -12.7950   11.9690 C.3    73  ILE73       0.1561
     25  C        -20.0020  -14.2150   11.6870 C.2    73  ILE73       0.2260
     26  O        -20.0690  -15.0710   12.5870 O.2    73  ILE73      -0.2867
     27  CB       -19.5390  -12.2120   13.0710 C.3    73  ILE73       0.0252
     28  CG1      -20.0700  -10.8470   13.5470 C.3    73  ILE73       0.0019
     29  CG2      -18.0650  -12.1170   12.5760 C.3    73  ILE73       0.0019
     30  CD1      -19.2030  -10.2100   14.6480 C.3    73  ILE73       0.0001
     31  N         -6.9400   -1.8660   15.7610 N.3   104  HIS104     -0.1241
     32  CA        -7.7750   -2.1010   16.9170 C.3   104  HIS104      0.1621
     33  C         -7.7400   -3.6180   17.1820 C.2   104  HIS104      0.2264
     34  O         -7.0700   -4.3510   16.4390 O.2   104  HIS104     -0.2867
     35  CB        -9.1920   -1.5290   16.7540 C.3   104  HIS104      0.0745
     36  CG       -10.0180   -2.0830   15.6170 C.ar  104  HIS104      0.0817
     37  ND1       -9.5680   -2.2100   14.3140 N.ar  104  HIS104     -0.2268
     38  CD2      -11.3220   -2.4760   15.5990 C.ar  104  HIS104      0.1154
     39  CE1      -10.5610   -2.6470   13.5450 C.ar  104  HIS104      0.1986
     40  NE2      -11.6350   -2.8110   14.3040 N.ar  104  HIS104     -0.2212
     41  N        -10.3480   -5.8600   17.4420 N.3   106  HIS106     -0.1226
     42  CA       -11.4040   -6.7300   16.9420 C.3   106  HIS106      0.1752
     43  C        -10.8130   -7.9720   16.2820 C.2   106  HIS106      0.2596
     44  O         -9.6690   -7.9660   15.8400 O.2   106  HIS106     -0.2718
     45  CB       -12.2720   -5.9670   15.9750 C.3   106  HIS106      0.0759
     46  CG       -13.1910   -4.9900   16.6430 C.ar  106  HIS106      0.0818
     47  ND1      -13.9120   -4.0380   15.9420 N.ar  106  HIS106     -0.2268
     48  CD2      -13.5240   -4.8360   17.9440 C.ar  106  HIS106      0.1154
     49  CE1      -14.6250   -3.3230   16.7980 C.ar  106  HIS106      0.1986
     50  NE2      -14.4100   -3.7870   18.0190 N.ar  106  HIS106     -0.2212
     51  N        -11.6240   -9.0200   16.1890 N.am  107  PHE107     -0.1962
     52  CA       -11.0860  -10.3670   15.9560 C.3   107  PHE107      0.1771
     53  C        -10.4300  -10.5480   14.6000 C.2   107  PHE107      0.2620
     54  O         -9.5170  -11.3990   14.4620 O.2   107  PHE107     -0.2715
     55  CB       -12.1660  -11.4320   16.2130 C.3   107  PHE107      0.0574
     56  CG       -12.8950  -11.8360   14.9870 C.ar  107  PHE107     -0.0200
     57  CD1      -12.6120  -13.0700   14.4160 C.ar  107  PHE107     -0.0042
     58  CD2      -13.8380  -11.0040   14.3830 C.ar  107  PHE107     -0.0042
     59  CE1      -13.2170  -13.4780   13.2470 C.ar  107  PHE107     -0.0003
     60  CE2      -14.4910  -11.4130   13.2070 C.ar  107  PHE107     -0.0003
     61  CZ       -14.1550  -12.6480   12.6210 C.ar  107  PHE107     -0.0000
     62  N        -10.9000   -9.8090   13.5860 N.am  108  ASP108     -0.1957
     63  CA       -10.3870   -9.8470   12.2210 C.3   108  ASP108      0.1840
     64  C         -9.1740   -8.9600   11.9850 C.2   108  ASP108      0.2622
     65  O         -8.6490   -8.9210   10.8630 O.2   108  ASP108     -0.2715
     66  CB       -11.4900   -9.4710   11.2050 C.3   108  ASP108      0.1450
     67  CG       -12.2550   -8.1790   11.5690 C.2   108  ASP108      0.3671
     68  OD1      -12.5900   -7.3940   10.6560 O.co2 108  ASP108     -0.2456
     69  OD2      -12.5530   -7.9270   12.7530 O.co2 108  ASP108     -0.2456
     70  N         -8.7690   -8.2360   13.0330 N.am  109  HIS109     -0.1973
     71  CA        -7.6480   -7.3120   12.9590 C.3   109  HIS109      0.1656
     72  C         -6.4960   -7.6920   13.8640 C.2   109  HIS109      0.2291
     73  O         -5.3510   -7.3200   13.5920 O.2   109  HIS109     -0.2864
     74  CB        -8.1310   -5.9010   13.3110 C.3   109  HIS109      0.0771
     75  CG        -9.0950   -5.3920   12.3000 C.ar  109  HIS109      0.0820
     76  ND1       -8.6950   -4.6330   11.2280 N.ar  109  HIS109     -0.2267
     77  CD2      -10.4260   -5.5790   12.1580 C.ar  109  HIS109      0.1154
     78  CE1       -9.7380   -4.3910   10.4490 C.ar  109  HIS109      0.1986
     79  NE2      -10.8010   -4.9320   11.0130 N.ar  109  HIS109     -0.2212
     80  N        -17.0940   -7.9770   23.2380 N.3   136  GLU136     -0.1245
     81  CA       -16.8660   -8.2160   21.8190 C.3   136  GLU136      0.1567
     82  C        -15.4190   -8.6220   21.5210 C.2   136  GLU136      0.2260
     83  O        -15.0770   -8.8530   20.3360 O.2   136  GLU136     -0.2867
     84  CB       -17.3110   -7.0400   20.9380 C.3   136  GLU136      0.0388
     85  CG       -16.5100   -5.7400   21.1190 C.3   136  GLU136      0.1160
     86  CD       -17.0510   -4.8390   22.2140 C.2   136  GLU136      0.3649
     87  OE1      -16.7040   -3.6440   22.2010 O.co2 136  GLU136     -0.2457
     88  OE2      -17.8150   -5.3100   23.0890 O.co2 136  GLU136     -0.2457
     89  N        -15.6660    3.5230   16.2970 N.3   169  HIS169     -0.1241
     90  CA       -15.9770    2.1380   15.8930 C.3   169  HIS169      0.1621
     91  C        -15.5590    1.1750   17.0240 C.2   169  HIS169      0.2264
     92  O        -16.2660    0.1980   17.3270 O.2   169  HIS169     -0.2867
     93  CB       -15.2770    1.7940   14.5740 C.3   169  HIS169      0.0745
     94  CG       -15.2780    0.3410   14.2680 C.ar  169  HIS169      0.0817
     95  ND1      -16.4150   -0.3430   13.8690 N.ar  169  HIS169     -0.2268
     96  CD2      -14.2880   -0.5850   14.3640 C.ar  169  HIS169      0.1154
     97  CE1      -16.1100   -1.6240   13.7050 C.ar  169  HIS169      0.1986
     98  NE2      -14.8300   -1.7930   13.9950 N.ar  169  HIS169     -0.2212
     99  N        -11.2170    0.6260   10.1310 N.3   191  ASP191     -0.1239
    100  CA       -12.6620    0.5360   10.4540 C.3   191  ASP191      0.1674
    101  C        -13.2570    1.8650   10.9350 C.2   191  ASP191      0.2266
    102  O        -14.3720    1.8940   11.4260 O.2   191  ASP191     -0.2867
    103  CB       -12.9260   -0.5660   11.4590 C.3   191  ASP191      0.1410
    104  CG       -12.8180   -1.9860   10.8430 C.2   191  ASP191      0.3668
    105  OD1      -12.4200   -2.1080    9.6560 O.co2 191  ASP191     -0.2456
    106  OD2      -13.0960   -2.9470   11.6060 O.co2 191  ASP191     -0.2456
    107  N        -16.1210    1.3900    7.1520 N.3   194  TYR194     -0.1241
    108  CA       -16.0530    0.1200    6.4350 C.3   194  TYR194      0.1605
    109  C        -16.0920    0.3640    4.9260 C.2   194  TYR194      0.2264
    110  O        -15.4010   -0.3060    4.1630 O.2   194  TYR194     -0.2867
    111  CB       -17.2570   -0.7580    6.7730 C.3   194  TYR194      0.0534
    112  CG       -17.2270   -1.4800    8.1060 C.ar  194  TYR194     -0.0201
    113  CD1      -16.1430   -1.4390    8.9870 C.ar  194  TYR194     -0.0009
    114  CD2      -18.3460   -2.2390    8.4820 C.ar  194  TYR194     -0.0009
    115  CE1      -16.1840   -2.1800   10.1680 C.ar  194  TYR194      0.0417
    116  CE2      -18.3790   -2.9520    9.6520 C.ar  194  TYR194      0.0417
    117  CZ       -17.2950   -2.9330   10.4880 C.ar  194  TYR194      0.1957
    118  OH       -17.3320   -3.6750   11.6530 O.3   194  TYR194     -0.2866
    119  N        -21.5650   -0.3660   11.9860 N.3   206  ALA206     -0.1231
    120  CA       -21.3770   -0.9690   13.2970 C.3   206  ALA206      0.1694
    121  C        -20.2660   -0.2630   14.0450 C.2   206  ALA206      0.2593
    122  O        -19.1990    0.0150   13.4750 O.2   206  ALA206     -0.2718
    123  CB       -21.0330   -2.4430   13.1620 C.3   206  ALA206      0.0304
    124  N        -20.5120    0.0040   15.3240 N.am  207  GLY207     -0.1942
    125  CA       -19.4720    0.5930   16.1560 C.3   207  GLY207      0.2014
    126  C        -19.8950    0.6810   17.6020 C.2   207  GLY207      0.2638
    127  O        -21.1020    0.6890   17.9270 O.2   207  GLY207     -0.2714
    128  N        -18.8930    0.7710   18.4660 N.am  208  PHE208     -0.1973
    129  CA       -19.0960    0.9590   19.8940 C.3   208  PHE208      0.1639
    130  C        -19.7990    2.2760   20.2360 C.2   208  PHE208      0.2290
    131  O        -20.6600    2.3010   21.1160 O.2   208  PHE208     -0.2864
    132  CB       -17.7310    0.7880   20.5910 C.3   208  PHE208      0.0560
    133  CG       -17.4680    1.7130   21.7580 C.ar  208  PHE208     -0.0200
    134  CD1      -17.9420    1.4080   23.0240 C.ar  208  PHE208     -0.0042
    135  CD2      -16.6570    2.8420   21.5930 C.ar  208  PHE208     -0.0042
    136  CE1      -17.6620    2.2450   24.1160 C.ar  208  PHE208     -0.0003
    137  CE2      -16.3850    3.7020   22.6740 C.ar  208  PHE208     -0.0003
    138  CZ       -16.8730    3.3930   23.9330 C.ar  208  PHE208     -0.0000
    139  N        -13.5530   -2.3560    4.7040 N.3   235  HIS235     -0.1241
    140  CA       -14.2120   -3.5890    4.2660 C.3   235  HIS235      0.1621
    141  C        -15.1860   -3.2470    3.1360 C.2   235  HIS235      0.2264
    142  O        -16.4260   -3.3310    3.2970 O.2   235  HIS235     -0.2867
    143  CB       -15.0000   -4.2060    5.4220 C.3   235  HIS235      0.0745
    144  CG       -14.1760   -4.6390    6.5870 C.ar  235  HIS235      0.0817
    145  ND1      -13.3640   -5.7530    6.5680 N.ar  235  HIS235     -0.2268
    146  CD2      -14.0780   -4.1240    7.8340 C.ar  235  HIS235      0.1154
    147  CE1      -12.7930   -5.9010    7.7470 C.ar  235  HIS235      0.1986
    148  NE2      -13.2130   -4.9250    8.5330 N.ar  235  HIS235     -0.2212
@<TRIPOS>BOND
     1    15    16    1
     2   141   142    2
     3   141   140    1
     4    16    17    1
     5    16    19    1
     6    17    18    2
     7    22    20    1
     8   110   109    2
     9   140   139    1
    10   140   143    1
    11    19    20    1
    12    20    21    1
    13   109   108    1
    14   143   144    1
    15     1     2    1
    16     4     3    2
    17    10     9    2
    18     3     2    1
    19   108   111    1
    20   108   107    1
    21   145   144   ar
    22   145   147   ar
    23   144   146   ar
    24   111   112    1
    25     2     5    1
    26     7     8    1
    27     9     8    1
    28   147   148   ar
    29   146   148   ar
    30     5     6    1
    31   112   114   ar
    32   112   113   ar
    33     8    11    1
    34    11    12    1
    35   114   116   ar
    36   113   115   ar
    37    12    13    1
    38    12    14    1
    39   116   117   ar
    40   105   104   ar
    41    99   100    1
    42   115   117   ar
    43    78    79   ar
    44    78    76   ar
    45   100   101    1
    46   100   103    1
    47   117   118    1
    48    68    67   ar
    49   104   103    1
    50   104   106   ar
    51    65    64    2
    52   101   102    2
    53    79    77   ar
    54    66    67    1
    55    66    63    1
    56    76    75   ar
    57    67    69   ar
    58    25    24    1
    59    25    26    2
    60    24    23    1
    61    24    27    1
    62    64    63    1
    63    64    70   am
    64   119   120    1
    65    77    75   ar
    66    63    62    1
    67    75    74    1
    68    29    27    1
    69    61    60   ar
    70    61    59   ar
    71    71    70    1
    72    71    74    1
    73    71    72    1
    74    27    28    1
    75   123   120    1
    76    60    58   ar
    77    59    57   ar
    78   120   121    1
    79   122   121    2
    80    39    40   ar
    81    39    37   ar
    82    28    30    1
    83    62    53   am
    84    73    72    2
    85    97    95   ar
    86    97    98   ar
    87    95    94   ar
    88    98    96   ar
    89   121   124   am
    90    94    96   ar
    91    94    93    1
    92    40    38   ar
    93    37    36   ar
    94    58    56   ar
    95    57    56   ar
    96    54    53    2
    97    93    90    1
    98    53    52    1
    99    56    55    1
   100   124   125    1
   101    38    36   ar
   102    36    35    1
   103    31    32    1
   104    44    43    2
   105    90    89    1
   106    90    91    1
   107    47    46   ar
   108    47    49   ar
   109    52    51    1
   110    52    55    1
   111    45    46    1
   112    45    42    1
   113   125   126    1
   114    51    43   am
   115    43    42    1
   116    34    33    2
   117    46    48   ar
   118    35    32    1
   119    49    50   ar
   120    32    33    1
   121    42    41    1
   122    91    92    2
   123   126   127    2
   124   126   128   am
   125    48    50   ar
   126   128   129    1
   127   129   130    1
   128   129   132    1
   129   130   131    2
   130    83    82    2
   131   132   133    1
   132    84    85    1
   133    84    81    1
   134    85    86    1
   135    82    81    1
   136   135   133   ar
   137   135   137   ar
   138   133   134   ar
   139    81    80    1
   140    87    86   ar
   141    86    88   ar
   142   137   138   ar
   143   134   136   ar
   144   138   136   ar
