@<TRIPOS>MOLECULE
tmp/3dhcA00.pdb
 174 168 0 0 0
SMALL
GASTEIGER

@<TRIPOS>ATOM
      1  N         12.3930   39.9660   33.7160 N.3    14  CYS14      -0.1235
      2  CA        11.4510   40.1310   32.6070 C.3    14  CYS14       0.1677
      3  C         10.0650   39.7840   33.0850 C.2    14  CYS14       0.2270
      4  O          9.8720   38.7440   33.7090 O.2    14  CYS14      -0.2867
      5  CB        11.9130   39.2450   31.4480 C.3    14  CYS14       0.0956
      6  SG        10.9790   39.5910   29.9270 S.3    14  CYS14      -0.0801
      7  N          6.5110   38.3050   32.3240 N.3    16  LEU16      -0.1245
      8  CA         5.9310   37.3840   31.3680 C.3    16  LEU16       0.1561
      9  C          4.5340   37.0370   31.8610 C.2    16  LEU16       0.2260
     10  O          4.3380   36.8680   33.0150 O.2    16  LEU16      -0.2867
     11  CB         6.8350   36.1430   31.2890 C.3    16  LEU16       0.0270
     12  CG         6.4890   35.0130   30.3360 C.3    16  LEU16       0.0019
     13  CD1        6.5840   35.5630   28.8880 C.3    16  LEU16       0.0001
     14  CD2        7.4120   33.8150   30.5150 C.3    16  LEU16       0.0001
     15  N          9.9560   37.6280   36.3500 N.3    33  LEU33      -0.1245
     16  CA        10.8050   36.4440   36.3890 C.3    33  LEU33       0.1561
     17  C         12.2720   36.8300   36.2920 C.2    33  LEU33       0.2260
     18  O         12.6390   37.8500   35.6660 O.2    33  LEU33      -0.2867
     19  CB        10.5000   35.5740   35.1370 C.3    33  LEU33       0.0270
     20  CG         9.0770   35.0250   35.0580 C.3    33  LEU33       0.0019
     21  CD1        8.8500   34.2370   33.7790 C.3    33  LEU33       0.0001
     22  CD2        8.7780   34.2020   36.2890 C.3    33  LEU33       0.0001
     23  N         16.1410   36.7970   35.0360 N.3    35  VAL35      -0.1245
     24  CA        16.9830   36.4440   33.8870 C.3    35  VAL35       0.1561
     25  C         18.3690   36.1330   34.4410 C.2    35  VAL35       0.2260
     26  O         18.9020   36.8940   35.2860 O.2    35  VAL35      -0.2867
     27  CB        17.0530   37.6120   32.8760 C.3    35  VAL35       0.0252
     28  CG1       18.0900   37.3500   31.7510 C.3    35  VAL35       0.0019
     29  CG2       15.6560   37.8860   32.2920 C.3    35  VAL35       0.0019
     30  N          4.0050   41.0850   17.9930 N.3    68  PHE68      -0.1227
     31  CA         3.1110   39.9690   18.3490 C.3    68  PHE68       0.1736
     32  C          3.0990   39.6280   19.8560 C.2    68  PHE68       0.2595
     33  O          2.2020   38.9450   20.3220 O.2    68  PHE68      -0.2718
     34  CB         3.3550   38.7180   17.4380 C.3    68  PHE68       0.0547
     35  CG         4.5330   37.8240   17.8610 C.ar   68  PHE68      -0.0202
     36  CD1        5.8550   38.1850   17.5420 C.ar   68  PHE68      -0.0042
     37  CD2        4.3160   36.6250   18.5660 C.ar   68  PHE68      -0.0042
     38  CE1        6.9520   37.3390   17.9150 C.ar   68  PHE68      -0.0003
     39  CE2        5.3890   35.7870   18.9510 C.ar   68  PHE68      -0.0003
     40  CZ         6.7130   36.1500   18.6150 C.ar   68  PHE68      -0.0000
     41  N          4.0680   40.1690   20.6310 N.am   69  VAL69      -0.1980
     42  CA         4.0880   39.9020   22.0530 C.3    69  VAL69       0.1595
     43  C          3.8170   41.1780   22.8880 C.2    69  VAL69       0.2287
     44  O          4.0950   41.1900   24.0690 O.2    69  VAL69      -0.2864
     45  CB         5.4110   39.2120   22.4900 C.3    69  VAL69       0.0276
     46  CG1        5.5530   37.8490   21.7900 C.3    69  VAL69       0.0022
     47  CG2        6.6100   40.1000   22.1680 C.3    69  VAL69       0.0022
     48  N          5.3700   40.3870   27.1610 N.3    73  ILE73      -0.1245
     49  CA         6.7940   40.3180   27.5830 C.3    73  ILE73       0.1561
     50  C          7.2640   41.7560   27.7930 C.2    73  ILE73       0.2260
     51  O          7.1750   42.5690   26.8580 O.2    73  ILE73      -0.2867
     52  CB         7.6540   39.6500   26.4590 C.3    73  ILE73       0.0252
     53  CG1        7.1130   38.2160   26.2000 C.3    73  ILE73       0.0019
     54  CG2        9.1130   39.7040   26.9400 C.3    73  ILE73       0.0019
     55  CD1        7.8890   37.3430   25.2030 C.3    73  ILE73       0.0001
     56  N         16.9920   33.3240   22.1330 N.3   106  HIS106     -0.1226
     57  CA        15.9490   34.2300   22.6150 C.3   106  HIS106      0.1752
     58  C         16.5820   35.4740   23.2520 C.2   106  HIS106      0.2596
     59  O         17.7070   35.4480   23.7410 O.2   106  HIS106     -0.2718
     60  CB        15.0400   33.5050   23.5550 C.3   106  HIS106      0.0759
     61  CG        14.1520   32.5150   22.8500 C.ar  106  HIS106      0.0818
     62  ND1       13.4340   31.5700   23.5490 N.ar  106  HIS106     -0.2268
     63  CD2       13.8720   32.3200   21.5510 C.ar  106  HIS106      0.1154
     64  CE1       12.7150   30.8400   22.7020 C.ar  106  HIS106      0.1986
     65  NE2       12.9630   31.2570   21.4700 N.ar  106  HIS106     -0.2212
     66  N         15.7560   36.5410   23.3310 N.am  107  PHE107     -0.1962
     67  CA        16.3040   37.8950   23.5510 C.3   107  PHE107      0.1771
     68  C         16.9620   38.0670   24.8750 C.2   107  PHE107      0.2620
     69  O         17.8650   38.9170   25.0170 O.2   107  PHE107     -0.2715
     70  CB        15.2420   38.9670   23.2500 C.3   107  PHE107      0.0574
     71  CG        14.4090   39.2850   24.4400 C.ar  107  PHE107     -0.0200
     72  CD1       14.6700   40.4360   25.1560 C.ar  107  PHE107     -0.0042
     73  CD2       13.4350   38.3960   24.9120 C.ar  107  PHE107     -0.0042
     74  CE1       13.9680   40.7540   26.2980 C.ar  107  PHE107     -0.0003
     75  CE2       12.7190   38.6910   26.1380 C.ar  107  PHE107     -0.0003
     76  CZ        13.0120   39.8620   26.8020 C.ar  107  PHE107     -0.0000
     77  N         16.4800   37.3210   25.8910 N.am  108  ASP108     -0.1957
     78  CA        17.0510   37.4760   27.2310 C.3   108  ASP108      0.1840
     79  C         18.1580   36.5050   27.5170 C.2   108  ASP108      0.2622
     80  O         18.6780   36.5350   28.6280 O.2   108  ASP108     -0.2715
     81  CB        15.9670   37.3940   28.3020 C.3   108  ASP108      0.1450
     82  CG        15.2660   36.1060   28.2900 C.2   108  ASP108      0.3671
     83  OD1       15.1650   35.4350   29.3700 O.co2 108  ASP108     -0.2456
     84  OD2       14.8380   35.6440   27.1780 O.co2 108  ASP108     -0.2456
     85  N         18.5610   35.7440   26.4870 N.am  109  HIS109     -0.1973
     86  CA        19.7240   34.8480   26.6200 C.3   109  HIS109      0.1656
     87  C         20.8690   35.2130   25.6970 C.2   109  HIS109      0.2291
     88  O         22.0100   34.8250   25.9980 O.2   109  HIS109     -0.2864
     89  CB        19.2730   33.4100   26.2850 C.3   109  HIS109      0.0771
     90  CG        18.3010   32.9030   27.2640 C.ar  109  HIS109      0.0820
     91  ND1       18.6870   32.2000   28.3680 N.ar  109  HIS109     -0.2267
     92  CD2       16.9660   33.0570   27.3510 C.ar  109  HIS109      0.1154
     93  CE1       17.6160   31.9590   29.1160 C.ar  109  HIS109      0.1986
     94  NE2       16.5510   32.4480   28.4990 N.ar  109  HIS109     -0.2212
     95  N         12.9910   33.2030   12.0410 N.3   134  ARG134     -0.1245
     96  CA        11.7700   33.1360   12.8380 C.3   134  ARG134      0.1563
     97  C         11.5390   34.4800   13.5150 C.2   134  ARG134      0.2260
     98  O         12.4930   35.1750   13.9370 O.2   134  ARG134     -0.2867
     99  CB        11.7880   32.0080   13.8420 C.3   134  ARG134      0.0307
    100  CG        11.7620   30.5980   13.1840 C.3   134  ARG134      0.0489
    101  CD        11.5920   29.4900   14.2560 C.3   134  ARG134      0.2205
    102  NE        10.3990   29.7090   15.0970 N.pl3 134  ARG134     -0.0865
    103  CZ         9.2260   29.0900   14.9400 C.cat 134  ARG134      0.5346
    104  NH1        9.0840   28.2080   13.9670 N.pl3 134  ARG134      0.1354
    105  NH2        8.1950   29.3380   15.7680 N.pl3 134  ARG134      0.1354
    106  N         10.3680   35.4250   16.3880 N.3   136  GLU136     -0.1301
    107  CA        10.5930   35.6780   17.8190 C.3   136  GLU136      0.1252
    108  C         12.0500   36.0350   18.1010 C.3   136  GLU136      0.2009
    109  O         12.4350   36.1500   19.3270 O.3   136  GLU136     -0.2188
    110  CB        10.1860   34.4640   18.7000 C.3   136  GLU136      0.0335
    111  CG        10.9960   33.1630   18.4840 C.3   136  GLU136      0.1156
    112  CD        10.4280   32.2630   17.3670 C.2   136  GLU136      0.3649
    113  OE1       10.7550   31.0550   17.3710 O.co2 136  GLU136     -0.2457
    114  OE2        9.6730   32.7300   16.4710 O.co2 136  GLU136     -0.2457
    115  N         11.6830   23.9370   23.2900 N.3   169  HIS169     -0.1241
    116  CA        11.3400   25.3280   23.6540 C.3   169  HIS169      0.1621
    117  C         11.7670   26.2960   22.5210 C.2   169  HIS169      0.2264
    118  O         11.0640   27.2550   22.1830 O.2   169  HIS169     -0.2867
    119  CB        12.0480   25.6760   24.9510 C.3   169  HIS169      0.0745
    120  CG        12.0470   27.1280   25.2500 C.ar  169  HIS169      0.0817
    121  ND1       10.9070   27.8100   25.6700 N.ar  169  HIS169     -0.2268
    122  CD2       13.0440   28.0550   25.1670 C.ar  169  HIS169      0.1154
    123  CE1       11.2260   29.0880   25.7930 C.ar  169  HIS169      0.1986
    124  NE2       12.4980   29.2680   25.5040 N.ar  169  HIS169     -0.2212
    125  N         15.9950   26.8930   29.4470 N.3   191  ASP191     -0.1239
    126  CA        14.5690   26.9760   29.1220 C.3   191  ASP191      0.1674
    127  C         13.9950   25.6510   28.6380 C.2   191  ASP191      0.2266
    128  O         12.8810   25.6160   28.1220 O.2   191  ASP191     -0.2867
    129  CB        14.2730   28.0850   28.1320 C.3   191  ASP191      0.1410
    130  CG        14.4130   29.5180   28.7470 C.2   191  ASP191      0.3668
    131  OD1       14.7990   29.6170   29.9200 O.co2 191  ASP191     -0.2456
    132  OD2       14.2040   30.4870   27.9400 O.co2 191  ASP191     -0.2456
    133  N         11.0250   26.1780   32.3370 N.3   194  TYR194     -0.1241
    134  CA        11.0820   27.4410   33.0560 C.3   194  TYR194      0.1605
    135  C         11.0570   27.2190   34.5640 C.2   194  TYR194      0.2264
    136  O         11.7660   27.8700   35.3070 O.2   194  TYR194     -0.2867
    137  CB         9.8660   28.3390   32.7150 C.3   194  TYR194      0.0534
    138  CG         9.8850   29.0320   31.3760 C.ar  194  TYR194     -0.0201
    139  CD1       10.9540   28.9940   30.5110 C.ar  194  TYR194     -0.0009
    140  CD2        8.7840   29.7310   30.9800 C.ar  194  TYR194     -0.0009
    141  CE1       10.8910   29.6710   29.3340 C.ar  194  TYR194      0.0417
    142  CE2        8.7090   30.4180   29.7780 C.ar  194  TYR194      0.0417
    143  CZ         9.7870   30.3820   28.9680 C.ar  194  TYR194      0.1957
    144  OH         9.7360   31.1150   27.8030 O.3   194  TYR194     -0.2866
    145  N          5.6960   27.9280   27.4790 N.3   206  ALA206     -0.1231
    146  CA         5.9140   28.5020   26.1610 C.3   206  ALA206      0.1694
    147  C          7.0240   27.7640   25.4290 C.2   206  ALA206      0.2593
    148  O          8.1070   27.4910   25.9910 O.2   206  ALA206     -0.2718
    149  CB         6.3020   29.9600   26.2870 C.3   206  ALA206      0.0304
    150  N          6.8020   27.5160   24.1530 N.am  207  GLY207     -0.1942
    151  CA         7.8280   26.8790   23.3400 C.3   207  GLY207      0.2014
    152  C          7.4440   26.7630   21.8870 C.2   207  GLY207      0.2638
    153  O          6.2630   26.7420   21.5370 O.2   207  GLY207     -0.2714
    154  N          8.4550   26.6700   21.0370 N.am  208  PHE208     -0.1973
    155  CA         8.2680   26.5140   19.6160 C.3   208  PHE208      0.1639
    156  C          7.5520   25.1930   19.2310 C.2   208  PHE208      0.2290
    157  O          6.6710   25.1840   18.3380 O.2   208  PHE208     -0.2864
    158  CB         9.6420   26.6940   18.9720 C.3   208  PHE208      0.0560
    159  CG        10.0220   25.6590   17.9660 C.ar  208  PHE208     -0.0200
    160  CD1        9.6460   25.8140   16.6510 C.ar  208  PHE208     -0.0042
    161  CD2       10.8940   24.5970   18.3260 C.ar  208  PHE208     -0.0042
    162  CE1       10.0330   24.8840   15.7020 C.ar  208  PHE208     -0.0003
    163  CE2       11.2740   23.6600   17.3850 C.ar  208  PHE208     -0.0003
    164  CZ        10.8450   23.8240   16.0740 C.ar  208  PHE208     -0.0000
    165  N         13.5780   29.9420   34.7260 N.3   235  HIS235     -0.1241
    166  CA        12.8880   31.2210   35.1220 C.3   235  HIS235      0.1621
    167  C         11.9060   30.8660   36.2170 C.2   235  HIS235      0.2264
    168  O         10.6800   30.9660   35.9980 O.2   235  HIS235     -0.2867
    169  CB        12.0910   31.7850   33.9080 C.3   235  HIS235      0.0745
    170  CG        12.9460   32.2340   32.7730 C.ar  235  HIS235      0.0817
    171  ND1       13.8000   33.3260   32.8280 N.ar  235  HIS235     -0.2268
    172  CD2       13.0200   31.7640   31.5120 C.ar  235  HIS235      0.1154
    173  CE1       14.3890   33.4720   31.6550 C.ar  235  HIS235      0.1986
    174  NE2       13.9000   32.5600   30.8360 N.ar  235  HIS235     -0.2212
@<TRIPOS>BOND
     1    95    96    1
     2    96    97    1
     3    96    99    1
     4   100    99    1
     5   100   101    1
     6    97    98    2
     7   104   103    1
     8   101   102    1
     9   103   102    2
    10   103   105    1
    11   162   164   ar
    12   162   160   ar
    13   164   163   ar
    14   106   107    1
    15   114   112   ar
    16   160   159   ar
    17   112   113   ar
    18   112   111    1
    19   163   161   ar
    20    34    35    1
    21    34    31    1
    22    36    35   ar
    23    36    38   ar
    24   107   108    1
    25   107   110    1
    26    35    37   ar
    27    38    40   ar
    28   159   161   ar
    29   159   158    1
    30    30    31    1
    31   108   109    1
    32   157   156    2
    33    31    32    1
    34   111   110    1
    35    37    39   ar
    36    40    39   ar
    37   158   155    1
    38   156   155    1
    39   155   154    1
    40    32    33    2
    41    32    41   am
    42    41    42    1
    43   154   152   am
    44    65    63   ar
    45    65    64   ar
    46   153   152    2
    47    63    61   ar
    48    46    45    1
    49   152   151    1
    50    42    45    1
    51    42    43    1
    52    56    57    1
    53    47    45    1
    54   118   117    2
    55   117   116    1
    56    57    58    1
    57    57    60    1
    58    64    62   ar
    59    61    62   ar
    60    61    60    1
    61    43    44    2
    62    70    67    1
    63    70    71    1
    64    58    66   am
    65    58    59    2
    66   115   116    1
    67    66    67    1
    68   151   150    1
    69    67    68    1
    70   116   119    1
    71   150   147   am
    72    71    73   ar
    73    71    72   ar
    74    68    69    2
    75    68    77   am
    76    73    75   ar
    77   119   120    1
    78    72    74   ar
    79   122   120   ar
    80   122   124   ar
    81    55    53    1
    82   120   121   ar
    83   147   148    2
    84   147   146    1
    85   124   123   ar
    86   121   123   ar
    87    87    88    2
    88    87    86    1
    89    77    78    1
    90    75    76   ar
    91   146   149    1
    92   146   145    1
    93    53    52    1
    94    89    86    1
    95    89    90    1
    96    74    76   ar
    97    52    54    1
    98    52    49    1
    99    85    86    1
   100    85    79   am
   101    51    50    2
   102    48    49    1
   103    84    82   ar
   104    78    79    1
   105    78    81    1
   106    90    92   ar
   107    90    91   ar
   108    92    94   ar
   109    79    80    2
   110    49    50    1
   111   144   143    1
   112   132   130   ar
   113   128   127    2
   114   129   130    1
   115   129   126    1
   116    82    81    1
   117    82    83   ar
   118    91    93   ar
   119    94    93   ar
   120   127   126    1
   121   130   131   ar
   122    13    12    1
   123   143   141   ar
   124   143   142   ar
   125   126   125    1
   126   141   139   ar
   127   142   140   ar
   128     6     5    1
   129    12    14    1
   130    12    11    1
   131   139   138   ar
   132   174   172   ar
   133   174   173   ar
   134   140   138   ar
   135    11     8    1
   136     8     9    1
   137     8     7    1
   138   138   137    1
   139     5     2    1
   140   172   170   ar
   141   173   171   ar
   142    28    27    1
   143     9    10    2
   144    29    27    1
   145   133   134    1
   146     2     3    1
   147     2     1    1
   148   137   134    1
   149   170   171   ar
   150   170   169    1
   151    27    24    1
   152   134   135    1
   153     3     4    2
   154    21    20    1
   155    24    25    1
   156    24    23    1
   157   169   166    1
   158    25    26    2
   159   135   136    2
   160   165   166    1
   161    20    19    1
   162    20    22    1
   163   166   167    1
   164    19    16    1
   165    18    17    2
   166   168   167    2
   167    17    16    1
   168    15    16    1
