@<TRIPOS>MOLECULE
tmp/3dhhA02.pdb
 136 128 0 0 0
SMALL
GASTEIGER

@<TRIPOS>ATOM
      1  N          1.7210  -38.4490   14.4130 N.3    98  ALA98      -0.1231
      2  CA         2.0640  -38.4440   15.8620 C.3    98  ALA98       0.1694
      3  C          3.4480  -39.0060   16.0760 C.2    98  ALA98       0.2591
      4  O          4.0480  -38.7490   17.1140 O.2    98  ALA98      -0.2718
      5  CB         1.0710  -39.3010   16.6570 C.3    98  ALA98       0.0304
      6  N          3.9450  -39.7480   15.0810 N.am   99  ILE99      -0.1980
      7  CA         5.1330  -40.6130   15.2600 C.3    99  ILE99       0.1595
      8  C          6.4040  -40.2300   14.5090 C.2    99  ILE99       0.2287
      9  O          7.4710  -40.2490   15.1060 O.2    99  ILE99      -0.2864
     10  CB         4.7790  -42.1060   14.9750 C.3    99  ILE99       0.0276
     11  CG1        3.8370  -42.6440   16.0590 C.3    99  ILE99       0.0022
     12  CG2        6.0320  -42.9940   14.8350 C.3    99  ILE99       0.0022
     13  CD1        4.2890  -42.4290   17.5080 C.3    99  ILE99       0.0001
     14  N          8.7510  -37.6130   15.8960 N.3   102  GLY102     -0.1210
     15  CA         9.0950  -38.0910   17.2610 C.3   102  GLY102      0.1956
     16  C         10.1750  -39.1770   17.2610 C.2   102  GLY102      0.2611
     17  O         11.0840  -39.1340   18.0840 O.2   102  GLY102     -0.2717
     18  N         10.0920  -40.1370   16.3280 N.am  103  GLU103     -0.1979
     19  CA        11.1770  -41.1020   16.0920 C.3   103  GLU103      0.1602
     20  C         12.4850  -40.3580   15.8520 C.2   103  GLU103      0.2287
     21  O         13.4970  -40.6490   16.4620 O.2   103  GLU103     -0.2864
     22  CB        10.8590  -41.9370   14.8340 C.3   103  GLU103      0.0415
     23  CG         9.6100  -42.7920   15.0100 C.3   103  GLU103      0.1163
     24  CD         9.8890  -44.1560   15.5870 C.2   103  GLU103      0.3649
     25  OE1        9.0380  -45.0610   15.4590 O.co2 103  GLU103     -0.2457
     26  OE2       10.9410  -44.3360   16.2050 O.co2 103  GLU103     -0.2457
     27  N         13.8510  -39.0340   18.9270 N.3   106  ALA106     -0.1245
     28  CA        14.4740  -40.1090   19.7320 C.3   106  ALA106      0.1562
     29  C         15.9580  -40.3610   19.3960 C.2   106  ALA106      0.2260
     30  O         16.7030  -40.8810   20.2490 O.2   106  ALA106     -0.2867
     31  CB        13.6470  -41.4020   19.6430 C.3   106  ALA106      0.0290
     32  N         16.7560  -45.1740   15.3210 N.3   133  GLU133     -0.1245
     33  CA        15.7270  -44.1620   15.3420 C.3   133  GLU133      0.1567
     34  C         15.8030  -43.3320   14.0750 C.2   133  GLU133      0.2260
     35  O         14.8370  -42.9590   13.5880 O.2   133  GLU133     -0.2867
     36  CB        15.7230  -43.3040   16.5990 C.3   133  GLU133      0.0388
     37  CG        15.7050  -44.0330   17.9050 C.3   133  GLU133      0.1160
     38  CD        14.4260  -44.7910   18.1730 C.2   133  GLU133      0.3649
     39  OE1       13.6540  -44.9650   17.2880 O.co2 133  GLU133     -0.2457
     40  OE2       14.2070  -45.1650   19.2610 O.co2 133  GLU133     -0.2457
     41  N         13.8030  -45.3150   11.7470 N.3   136  HIS136     -0.1241
     42  CA        12.3510  -45.2360   11.9830 C.3   136  HIS136      0.1621
     43  C         11.7700  -43.8970   11.5330 C.2   136  HIS136      0.2264
     44  O         10.6750  -43.8460   10.9600 O.2   136  HIS136     -0.2867
     45  CB        12.0490  -45.4310   13.4540 C.3   136  HIS136      0.0745
     46  CG        12.5440  -46.7480   13.9810 C.ar  136  HIS136      0.0817
     47  ND1       12.5910  -47.0460   15.3260 N.ar  136  HIS136     -0.2268
     48  CD2       13.0210  -47.8340   13.3280 C.ar  136  HIS136      0.1154
     49  CE1       13.0780  -48.2730   15.4760 C.ar  136  HIS136      0.1986
     50  NE2       13.3590  -48.7640   14.2820 N.ar  136  HIS136     -0.2212
     51  N          4.8980  -31.9900   14.0860 N.3   161  TYR161     -0.1241
     52  CA         5.8400  -31.5070   15.0910 C.3   161  TYR161      0.1605
     53  C          6.2700  -30.0590   14.8680 C.2   161  TYR161      0.2264
     54  O          6.7660  -29.4220   15.7870 O.2   161  TYR161     -0.2867
     55  CB         7.0630  -32.4460   15.2230 C.3   161  TYR161      0.0534
     56  CG         6.7290  -33.7010   15.9900 C.ar  161  TYR161     -0.0201
     57  CD1        5.7370  -34.5870   15.5410 C.ar  161  TYR161     -0.0009
     58  CD2        7.3880  -33.9950   17.1700 C.ar  161  TYR161     -0.0009
     59  CE1        5.4280  -35.7590   16.2590 C.ar  161  TYR161      0.0417
     60  CE2        7.1070  -35.1400   17.8830 C.ar  161  TYR161      0.0417
     61  CZ         6.1450  -36.0170   17.4410 C.ar  161  TYR161      0.1957
     62  OH         5.9150  -37.1420   18.1930 O.3   161  TYR161     -0.2866
     63  N          7.4730  -36.0210   24.6890 N.3   175  PHE175     -0.1241
     64  CA         8.7910  -36.4670   24.1840 C.3   175  PHE175      0.1605
     65  C          9.8990  -35.5300   24.6040 C.2   175  PHE175      0.2264
     66  O         11.0260  -35.9680   24.8710 O.2   175  PHE175     -0.2867
     67  CB         8.8030  -36.7220   22.6520 C.3   175  PHE175      0.0534
     68  CG         7.9010  -37.8610   22.2420 C.ar  175  PHE175     -0.0203
     69  CD1        8.0700  -39.1310   22.8200 C.ar  175  PHE175     -0.0042
     70  CD2        6.9060  -37.6940   21.2880 C.ar  175  PHE175     -0.0042
     71  CE1        7.2410  -40.1910   22.4850 C.ar  175  PHE175     -0.0003
     72  CE2        6.0560  -38.7650   20.9430 C.ar  175  PHE175     -0.0003
     73  CZ         6.2180  -40.0060   21.5480 C.ar  175  PHE175     -0.0000
     74  N         12.4730  -37.7030   26.4640 N.3   179  ILE179     -0.1245
     75  CA        13.4750  -38.0610   25.4890 C.3   179  ILE179      0.1561
     76  C         14.5860  -37.0090   25.4090 C.2   179  ILE179      0.2260
     77  O         15.7620  -37.3290   25.5590 O.2   179  ILE179     -0.2867
     78  CB        12.8770  -38.3120   24.0490 C.3   179  ILE179      0.0252
     79  CG1       11.9180  -39.5140   24.0220 C.3   179  ILE179      0.0019
     80  CG2       13.9840  -38.5670   23.0600 C.3   179  ILE179      0.0019
     81  CD1       11.6240  -40.0050   22.5140 C.3   179  ILE179      0.0001
     82  N         12.8720  -43.4090   28.8170 N.3   191  LEU191     -0.1245
     83  CA        12.6750  -43.8030   27.4230 C.3   191  LEU191      0.1561
     84  C         12.8950  -45.3130   27.2070 C.2   191  LEU191      0.2260
     85  O         11.9570  -46.0130   26.8490 O.2   191  LEU191     -0.2867
     86  CB        13.5560  -43.0140   26.4700 C.3   191  LEU191      0.0270
     87  CG        13.5160  -43.4630   24.9950 C.3   191  LEU191      0.0019
     88  CD1       12.0840  -43.3260   24.3960 C.3   191  LEU191      0.0001
     89  CD2       14.5350  -42.6080   24.2050 C.3   191  LEU191      0.0001
     90  N          9.0980  -46.4330   28.4350 N.3   195  PHE195     -0.1227
     91  CA         8.3500  -46.2400   27.2100 C.3   195  PHE195      0.1736
     92  C          8.5550  -47.3690   26.1920 C.2   195  PHE195      0.2595
     93  O          7.5650  -47.9050   25.6540 O.2   195  PHE195     -0.2718
     94  CB         8.6960  -44.8650   26.6250 C.3   195  PHE195      0.0547
     95  CG         7.7990  -44.4270   25.4960 C.ar  195  PHE195     -0.0202
     96  CD1        6.4610  -44.1440   25.7120 C.ar  195  PHE195     -0.0042
     97  CD2        8.3080  -44.2760   24.2230 C.ar  195  PHE195     -0.0042
     98  CE1        5.6630  -43.7390   24.6490 C.ar  195  PHE195     -0.0003
     99  CE2        7.5150  -43.8600   23.1670 C.ar  195  PHE195     -0.0003
    100  CZ         6.2120  -43.5840   23.3780 C.ar  195  PHE195     -0.0000
    101  N          9.8100  -47.7350   25.9330 N.am  196  GLU196     -0.1979
    102  CA        10.1310  -48.6280   24.8130 C.3   196  GLU196      0.1602
    103  C          9.9570  -50.1190   25.1280 C.2   196  GLU196      0.2287
    104  O          9.8130  -50.9100   24.2100 O.2   196  GLU196     -0.2864
    105  CB        11.5350  -48.3750   24.2880 C.3   196  GLU196      0.0415
    106  CG        11.7430  -46.9750   23.6950 C.3   196  GLU196      0.1163
    107  CD        13.1830  -46.7740   23.1510 C.2   196  GLU196      0.3649
    108  OE1       14.1520  -47.1570   23.8290 O.co2 196  GLU196     -0.2457
    109  OE2       13.3460  -46.2320   22.0470 O.co2 196  GLU196     -0.2457
    110  N          5.3110  -48.8980   23.7160 N.3   200  THR200     -0.1218
    111  CA         5.3590  -48.8250   22.2290 C.3   200  THR200      0.1862
    112  C          4.8400  -50.0890   21.5750 C.2   200  THR200      0.2287
    113  O          4.3230  -50.0280   20.4630 O.2   200  THR200     -0.2866
    114  CB         6.7400  -48.5050   21.6710 C.3   200  THR200      0.1770
    115  OG1        7.6640  -49.4850   22.1120 O.3   200  THR200     -0.2211
    116  CG2        7.2130  -47.1100   22.1210 C.3   200  THR200      0.0375
    117  N          2.9490  -50.3860   17.8990 N.3   204  PHE204     -0.1241
    118  CA         3.7120  -50.9880   16.8490 C.3   204  PHE204      0.1605
    119  C          3.4630  -52.5100   16.6710 C.2   204  PHE204      0.2264
    120  O          3.8500  -53.0960   15.6800 O.2   204  PHE204     -0.2867
    121  CB         5.1730  -50.7190   17.0570 C.3   204  PHE204      0.0534
    122  CG         5.5850  -49.3160   16.7840 C.ar  204  PHE204     -0.0203
    123  CD1        5.5390  -48.3740   17.7530 C.ar  204  PHE204     -0.0042
    124  CD2        6.0150  -48.9410   15.5530 C.ar  204  PHE204     -0.0042
    125  CE1        5.8850  -47.0880   17.4920 C.ar  204  PHE204     -0.0003
    126  CE2        6.3490  -47.6630   15.3120 C.ar  204  PHE204     -0.0003
    127  CZ         6.3120  -46.7540   16.2980 C.ar  204  PHE204     -0.0000
    128  N         13.4260  -51.7650   18.2840 N.3   230  GLU230     -0.1245
    129  CA        13.0470  -51.3300   19.6290 C.3   230  GLU230      0.1567
    130  C         13.3720  -52.4230   20.6330 C.2   230  GLU230      0.2260
    131  O         13.9390  -52.1540   21.6920 O.2   230  GLU230     -0.2867
    132  CB        11.5370  -51.0270   19.6490 C.3   230  GLU230      0.0388
    133  CG        11.0120  -50.5120   20.9690 C.3   230  GLU230      0.1160
    134  CD        11.0660  -48.9910   21.0360 C.2   230  GLU230      0.3649
    135  OE1       10.0280  -48.3480   21.2810 O.co2 230  GLU230     -0.2457
    136  OE2       12.1390  -48.4250   20.8190 O.co2 230  GLU230     -0.2457
@<TRIPOS>BOND
     1    44    43    2
     2    43    42    1
     3    41    42    1
     4    42    45    1
     5    48    46   ar
     6    48    50   ar
     7    45    46    1
     8    35    34    2
     9    46    47   ar
    10    34    33    1
    11    51    52    1
    12    50    49   ar
    13     1     2    1
    14     8     9    2
    15     8     7    1
    16    22    23    1
    17    22    19    1
    18    12    10    1
    19    53    52    1
    20    53    54    2
    21    10     7    1
    22    10    11    1
    23    23    24    1
    24     6     7    1
    25     6     3   am
    26    52    55    1
    27    55    56    1
    28   126   124   ar
    29   126   127   ar
    30    32    33    1
    31    47    49   ar
    32    33    36    1
    33    25    24   ar
    34    57    56   ar
    35    57    59   ar
    36   124   122   ar
    37    24    26   ar
    38   120   119    2
    39    20    19    1
    40    20    21    2
    41     2     3    1
    42     2     5    1
    43    14    15    1
    44    56    58   ar
    45    11    13    1
    46     3     4    2
    47    19    18    1
    48    59    61   ar
    49   127   125   ar
    50    18    16   am
    51    36    37    1
    52   119   118    1
    53   122   121    1
    54   122   123   ar
    55   118   121    1
    56   118   117    1
    57    58    60   ar
    58    16    15    1
    59    16    17    2
    60    39    38   ar
    61    61    60   ar
    62    61    62    1
    63   125   123   ar
    64    37    38    1
    65    38    40   ar
    66   128   129    1
    67    27    28    1
    68    29    28    1
    69    29    30    2
    70   129   132    1
    71   129   130    1
    72    31    28    1
    73   132   133    1
    74   113   112    2
    75   130   131    2
    76   136   134   ar
    77    72    70   ar
    78    72    73   ar
    79   133   134    1
    80   134   135   ar
    81    70    68   ar
    82    73    71   ar
    83   112   111    1
    84   114   115    1
    85   114   116    1
    86   114   111    1
    87   109   107   ar
    88   111   110    1
    89    68    67    1
    90    68    69   ar
    91    71    69   ar
    92    81    79    1
    93    67    64    1
    94    80    78    1
    95   107   106    1
    96   107   108   ar
    97    99   100   ar
    98    99    97   ar
    99   100    98   ar
   100   106   105    1
   101    79    78    1
   102    78    75    1
   103    64    65    1
   104    64    63    1
   105    89    87    1
   106   104   103    2
   107    97    95   ar
   108   105   102    1
   109    88    87    1
   110    65    66    2
   111    98    96   ar
   112   102   103    1
   113   102   101    1
   114    87    86    1
   115    76    75    1
   116    76    77    2
   117    75    74    1
   118    95    96   ar
   119    95    94    1
   120    93    92    2
   121   101    92   am
   122    92    91    1
   123    86    83    1
   124    94    91    1
   125    85    84    2
   126    84    83    1
   127    91    90    1
   128    83    82    1
