@<TRIPOS>MOLECULE
tmp/3dhhA03.pdb
 104 102 0 0 0
SMALL
GASTEIGER

@<TRIPOS>ATOM
      1  N         -3.0900  -29.1740   18.8440 N.3   166  TRP166     -0.1241
      2  CA        -3.1550  -29.5850   20.2570 C.3   166  TRP166      0.1605
      3  C         -2.4560  -30.9310   20.4930 C.2   166  TRP166      0.2264
      4  O         -1.7400  -31.0820   21.4750 O.2   166  TRP166     -0.2867
      5  CB        -4.5730  -29.5970   20.7990 C.3   166  TRP166      0.0550
      6  CG        -5.3940  -30.6330   20.1880 C.ar  166  TRP166      0.0003
      7  CD1       -6.2250  -30.4940   19.0900 C.ar  166  TRP166      0.0946
      8  CD2       -5.4850  -31.9990   20.5960 C.ar  166  TRP166      0.0152
      9  NE1       -6.8150  -31.6960   18.8060 N.ar  166  TRP166     -0.2442
     10  CE2       -6.3850  -32.6370   19.7110 C.ar  166  TRP166      0.0810
     11  CE3       -4.8910  -32.7530   21.6300 C.ar  166  TRP166      0.0012
     12  CZ2       -6.6940  -33.9960   19.8120 C.ar  166  TRP166      0.0191
     13  CZ3       -5.1980  -34.0910   21.7310 C.ar  166  TRP166      0.0001
     14  CH2       -6.0930  -34.7060   20.8320 C.ar  166  TRP166      0.0015
     15  N        -14.3880  -32.2370   18.9900 N.3   337  TRP337     -0.1241
     16  CA       -13.5120  -31.1810   18.4750 C.3   337  TRP337      0.1605
     17  C        -12.7080  -31.6380   17.2340 C.2   337  TRP337      0.2264
     18  O        -11.5570  -31.2310   17.0280 O.2   337  TRP337     -0.2867
     19  CB       -12.5740  -30.6900   19.5810 C.3   337  TRP337      0.0550
     20  CG       -13.2200  -29.6730   20.5230 C.ar  337  TRP337      0.0003
     21  CD1      -13.0700  -28.3110   20.4970 C.ar  337  TRP337      0.0946
     22  CD2      -14.0800  -29.9660   21.6260 C.ar  337  TRP337      0.0152
     23  NE1      -13.8240  -27.7360   21.5110 N.ar  337  TRP337     -0.2442
     24  CE2      -14.4330  -28.7280   22.2270 C.ar  337  TRP337      0.0810
     25  CE3      -14.5640  -31.1580   22.1890 C.ar  337  TRP337      0.0012
     26  CZ2      -15.2560  -28.6490   23.3430 C.ar  337  TRP337      0.0191
     27  CZ3      -15.4150  -31.0740   23.3010 C.ar  337  TRP337      0.0001
     28  CH2      -15.7510  -29.8260   23.8580 C.ar  337  TRP337      0.0015
     29  N        -10.1320  -29.7110   14.9210 N.3   340  THR340     -0.1218
     30  CA        -8.7750  -29.3390   15.3610 C.3   340  THR340      0.1862
     31  C         -7.7390  -30.4680   15.1750 C.2   340  THR340      0.2287
     32  O         -6.5700  -30.2690   15.4820 O.2   340  THR340     -0.2866
     33  CB        -8.7310  -28.9520   16.8650 C.3   340  THR340      0.1770
     34  OG1       -9.1250  -30.0850   17.6620 O.3   340  THR340     -0.2211
     35  CG2       -9.7010  -27.8030   17.1450 C.3   340  THR340      0.0375
     36  N        -13.5600  -23.8230   24.0170 N.3   392  LEU392     -0.1231
     37  CA       -12.4050  -24.7100   24.2090 C.3   392  LEU392      0.1678
     38  C        -12.6590  -25.7170   25.3180 C.2   392  LEU392      0.2434
     39  O        -13.3630  -25.4060   26.2980 O.2   392  LEU392     -0.2733
     40  CB       -11.1580  -23.9130   24.5870 C.3   392  LEU392      0.0284
     41  CG       -10.4270  -23.0070   23.6040 C.3   392  LEU392      0.0019
     42  CD1       -9.3770  -22.2470   24.3660 C.3   392  LEU392      0.0001
     43  CD2       -9.7590  -23.7950   22.4990 C.3   392  LEU392      0.0001
     44  N        -12.0540  -26.9290   25.1950 N.am  393  PRO393     -0.2729
     45  CA       -12.0640  -27.7900   26.3600 C.3   393  PRO393      0.1401
     46  C        -11.0860  -27.1970   27.3540 C.2   393  PRO393      0.2269
     47  O        -10.1890  -26.4610   26.9420 O.2   393  PRO393     -0.2865
     48  CB       -11.5050  -29.1140   25.8270 C.3   393  PRO393      0.0296
     49  CG       -10.7040  -28.7650   24.6540 C.3   393  PRO393      0.0237
     50  CD       -11.3490  -27.5440   24.0480 C.3   393  PRO393      0.0939
     51  N         -7.8960  -27.8200   29.6670 N.3   395  VAL395     -0.1245
     52  CA        -6.7670  -28.7070   29.2860 C.3   395  VAL395      0.1561
     53  C         -5.8270  -28.9680   30.4620 C.2   395  VAL395      0.2260
     54  O         -5.5620  -28.0770   31.2740 O.2   395  VAL395     -0.2867
     55  CB        -6.0710  -28.1060   28.0650 C.3   395  VAL395      0.0252
     56  CG1       -4.7420  -28.8060   27.6890 C.3   395  VAL395      0.0019
     57  CG2       -7.0390  -28.1040   26.9040 C.3   395  VAL395      0.0019
     58  N         -1.4180  -32.0100   28.4560 N.3   400  GLN400     -0.1231
     59  CA        -1.8890  -31.1600   27.3510 C.3   400  GLN400      0.1698
     60  C         -3.1390  -31.7250   26.6600 C.2   400  GLN400      0.2592
     61  O         -3.4400  -31.3830   25.5240 O.2   400  GLN400     -0.2718
     62  CB        -0.7610  -30.9160   26.3420 C.3   400  GLN400      0.0381
     63  CG         0.6170  -30.5830   26.9590 C.3   400  GLN400      0.0905
     64  CD         0.6320  -29.2740   27.7490 C.2   400  GLN400      0.2608
     65  OE1        0.2560  -28.2370   27.2260 O.2   400  GLN400     -0.2717
     66  NE2        1.1000  -29.3250   29.0050 N.am  400  GLN400     -0.0878
     67  N         -3.8510  -32.6030   27.3550 N.am  401  ILE401     -0.1966
     68  CA        -5.0770  -33.2160   26.8410 C.3   401  ILE401      0.1712
     69  C         -6.2310  -32.7350   27.7480 C.2   401  ILE401      0.2458
     70  O         -6.0060  -32.4230   28.9280 O.2   401  ILE401     -0.2730
     71  CB        -4.9660  -34.7690   26.8400 C.3   401  ILE401      0.0289
     72  CG1       -3.6650  -35.2060   26.1140 C.3   401  ILE401      0.0022
     73  CG2       -6.1790  -35.4190   26.1380 C.3   401  ILE401      0.0023
     74  CD1       -3.2870  -36.6790   26.4730 C.3   401  ILE401      0.0001
     75  N         -7.4460  -32.5770   27.1920 N.am  402  PRO402     -0.2727
     76  CA        -8.5510  -32.0620   28.0210 C.3   402  PRO402      0.1402
     77  C         -8.8820  -32.8380   29.3030 C.2   402  PRO402      0.2269
     78  O         -8.6490  -34.0580   29.4140 O.2   402  PRO402     -0.2865
     79  CB        -9.7460  -32.0490   27.0450 C.3   402  PRO402      0.0296
     80  CG        -9.0990  -31.7850   25.7120 C.3   402  PRO402      0.0237
     81  CD        -7.8540  -32.6940   25.7770 C.3   402  PRO402      0.0939
     82  N         -2.3570  -24.6790   25.5940 N.3   449  ILE449     -0.1231
     83  CA        -3.0760  -23.9560   24.5400 C.3   449  ILE449      0.1692
     84  C         -4.1900  -23.0340   25.1180 C.2   449  ILE449      0.2591
     85  O         -4.3950  -21.9170   24.6410 O.2   449  ILE449     -0.2718
     86  CB        -3.5770  -24.9650   23.4510 C.3   449  ILE449      0.0266
     87  CG1       -4.1190  -24.2480   22.1990 C.3   449  ILE449      0.0019
     88  CG2       -4.6070  -25.9150   24.0450 C.3   449  ILE449      0.0020
     89  CD1       -3.5040  -24.8150   20.8850 C.3   449  ILE449      0.0001
     90  N         -4.8440  -23.4730   26.1820 N.am  450  VAL450     -0.1980
     91  CA        -5.8760  -22.6700   26.8570 C.3   450  VAL450      0.1595
     92  C         -5.2700  -21.4400   27.5510 C.2   450  VAL450      0.2287
     93  O         -5.7720  -20.3080   27.3900 O.2   450  VAL450     -0.2864
     94  CB        -6.7020  -23.5380   27.8310 C.3   450  VAL450      0.0276
     95  CG1       -7.4620  -22.6740   28.8660 C.3   450  VAL450      0.0022
     96  CG2       -7.6350  -24.4910   27.0460 C.3   450  VAL450      0.0022
     97  N         -2.9850  -23.2300   15.1750 N.3   470  MET470     -0.1245
     98  CA        -2.6170  -24.6500   15.1980 C.3   470  MET470      0.1570
     99  C         -1.9520  -25.1470   13.8950 C.2   470  MET470      0.2261
    100  O         -1.5060  -26.2890   13.8150 O.2   470  MET470     -0.2867
    101  CB        -3.8450  -25.4850   15.5400 C.3   470  MET470      0.0387
    102  CG        -4.2670  -25.3690   17.0190 C.3   470  MET470      0.0595
    103  SD        -5.5090  -26.6220   17.3230 S.3   470  MET470     -0.1393
    104  CE        -6.9810  -25.6520   16.9460 C.3   470  MET470      0.0692
@<TRIPOS>BOND
     1   100    99    2
     2    99    98    1
     3    29    30    1
     4    31    30    1
     5    31    32    2
     6    97    98    1
     7    98   101    1
     8    30    33    1
     9   101   102    1
    10    33    35    1
    11    33    34    1
    12   104   103    1
    13   102   103    1
    14    18    17    2
    15    17    16    1
    16    16    15    1
    17    16    19    1
    18     9     7   ar
    19     9    10   ar
    20     1     2    1
    21     7     6   ar
    22    19    20    1
    23    10    12   ar
    24    10     8   ar
    25    12    14   ar
    26     6     8   ar
    27     6     5    1
    28     2     3    1
    29     2     5    1
    30     3     4    2
    31    21    20   ar
    32    21    23   ar
    33    20    22   ar
    34     8    11   ar
    35    14    13   ar
    36    89    87    1
    37    23    24   ar
    38    22    25   ar
    39    22    24   ar
    40    11    13   ar
    41    25    27   ar
    42    87    86    1
    43    24    26   ar
    44    43    41    1
    45    27    28   ar
    46    26    28   ar
    47    86    88    1
    48    86    83    1
    49    41    42    1
    50    41    40    1
    51    36    37    1
    52    50    49    1
    53    50    44    1
    54    37    40    1
    55    37    38    1
    56    83    84    1
    57    83    82    1
    58    85    84    2
    59    49    48    1
    60    84    90   am
    61    44    38   am
    62    44    45    1
    63    38    39    2
    64    61    60    2
    65    80    81    1
    66    80    79    1
    67    81    75    1
    68    48    45    1
    69    72    74    1
    70    72    71    1
    71    73    71    1
    72    90    91    1
    73    62    63    1
    74    62    59    1
    75    45    46    1
    76    60    59    1
    77    60    67   am
    78    71    68    1
    79    68    67    1
    80    68    69    1
    81    91    92    1
    82    91    94    1
    83    57    55    1
    84    47    46    2
    85    63    64    1
    86    79    76    1
    87    96    94    1
    88    75    69   am
    89    75    76    1
    90    65    64    2
    91    59    58    1
    92    93    92    2
    93    56    55    1
    94    69    70    2
    95    64    66   am
    96    94    95    1
    97    76    77    1
    98    55    52    1
    99    52    51    1
   100    52    53    1
   101    77    78    2
   102    53    54    2
