@<TRIPOS>MOLECULE
tmp/3dhiA00.pdb
 160 156 0 0 0
SMALL
GASTEIGER

@<TRIPOS>ATOM
      1  N         -3.0380  -28.8450   18.5900 N.3   166  TRP166     -0.1241
      2  CA        -3.0840  -29.1890   20.0310 C.3   166  TRP166      0.1605
      3  C         -2.4680  -30.5720   20.2990 C.2   166  TRP166      0.2264
      4  O         -1.7740  -30.7720   21.3130 O.2   166  TRP166     -0.2867
      5  CB        -4.5270  -29.1110   20.5820 C.3   166  TRP166      0.0550
      6  CG        -5.4390  -30.1830   20.0770 C.ar  166  TRP166      0.0003
      7  CD1       -6.2700  -30.1100   18.9910 C.ar  166  TRP166      0.0946
      8  CD2       -5.6110  -31.5000   20.6280 C.ar  166  TRP166      0.0152
      9  NE1       -6.9510  -31.2940   18.8370 N.ar  166  TRP166     -0.2442
     10  CE2       -6.5540  -32.1690   19.8200 C.ar  166  TRP166      0.0810
     11  CE3       -5.0620  -32.1790   21.7320 C.ar  166  TRP166      0.0012
     12  CZ2       -6.9690  -33.4790   20.0800 C.ar  166  TRP166      0.0191
     13  CZ3       -5.4580  -33.4740   21.9810 C.ar  166  TRP166      0.0001
     14  CH2       -6.4030  -34.1220   21.1620 C.ar  166  TRP166      0.0015
     15  N        -13.9030  -36.3000   22.8360 N.3   333  GLY333     -0.1210
     16  CA       -13.3540  -34.9580   22.7280 C.3   333  GLY333      0.1956
     17  C        -12.7260  -34.7200   21.3750 C.2   333  GLY333      0.2611
     18  O        -12.9370  -33.6750   20.7550 O.2   333  GLY333     -0.2717
     19  N        -11.9250  -35.6820   20.9170 N.am  334  VAL334     -0.1979
     20  CA       -11.2850  -35.5880   19.6140 C.3   334  VAL334      0.1595
     21  C        -12.3500  -35.5550   18.5100 C.2   334  VAL334      0.2287
     22  O        -12.2160  -34.8070   17.5530 O.2   334  VAL334     -0.2864
     23  CB       -10.3180  -36.7710   19.3810 C.3   334  VAL334      0.0276
     24  CG1       -9.8680  -36.8600   17.9230 C.3   334  VAL334      0.0022
     25  CG2       -9.0720  -36.6350   20.3010 C.3   334  VAL334      0.0022
     26  N        -14.3810  -32.1080   18.7040 N.3   337  TRP337     -0.1241
     27  CA       -13.4840  -31.0650   18.2370 C.3   337  TRP337      0.1605
     28  C        -12.6600  -31.4940   17.0070 C.2   337  TRP337      0.2264
     29  O        -11.5450  -31.0060   16.7900 O.2   337  TRP337     -0.2867
     30  CB       -12.5720  -30.5870   19.3800 C.3   337  TRP337      0.0550
     31  CG       -13.2220  -29.5510   20.2600 C.ar  337  TRP337      0.0003
     32  CD1      -13.0760  -28.1980   20.1740 C.ar  337  TRP337      0.0946
     33  CD2      -14.1020  -29.7970   21.3570 C.ar  337  TRP337      0.0152
     34  NE1      -13.8410  -27.5770   21.1500 N.ar  337  TRP337     -0.2442
     35  CE2      -14.4850  -28.5340   21.8810 C.ar  337  TRP337      0.0810
     36  CE3      -14.6430  -30.9570   21.9250 C.ar  337  TRP337      0.0012
     37  CZ2      -15.3630  -28.4050   22.9790 C.ar  337  TRP337      0.0191
     38  CZ3      -15.5100  -30.8320   23.0210 C.ar  337  TRP337      0.0001
     39  CH2      -15.8630  -29.5640   23.5310 C.ar  337  TRP337      0.0015
     40  N        -10.2050  -29.5900   14.6760 N.3   340  THR340     -0.1218
     41  CA        -8.8650  -29.1950   15.1420 C.3   340  THR340      0.1862
     42  C         -7.7890  -30.2660   14.9090 C.2   340  THR340      0.2287
     43  O         -6.6240  -30.0230   15.2150 O.2   340  THR340     -0.2866
     44  CB        -8.8600  -28.8430   16.6680 C.3   340  THR340      0.1770
     45  OG1       -9.1190  -30.0090   17.4610 O.3   340  THR340     -0.2211
     46  CG2       -9.9100  -27.7450   16.9580 C.3   340  THR340      0.0375
     47  N        -18.3490  -27.4450   17.9360 N.3   389  PRO389     -0.2102
     48  CA       -18.1710  -26.6600   19.1580 C.3   389  PRO389      0.1504
     49  C        -18.0710  -25.1550   18.9410 C.2   389  PRO389      0.2576
     50  O        -17.5980  -24.6790   17.8920 O.2   389  PRO389     -0.2718
     51  CB       -16.8420  -27.1920   19.7130 C.3   389  PRO389      0.0282
     52  CG       -16.0540  -27.5190   18.4640 C.3   389  PRO389      0.0208
     53  CD       -17.0730  -28.0330   17.4630 C.3   389  PRO389      0.0893
     54  N        -18.4800  -24.4140   19.9690 N.am  390  GLU390     -0.1966
     55  CA       -18.4060  -22.9560   19.9750 C.3   390  GLU390      0.1733
     56  C        -17.5850  -22.4370   21.1540 C.2   390  GLU390      0.2617
     57  O        -17.5990  -21.2420   21.4820 O.2   390  GLU390     -0.2715
     58  CB       -19.8130  -22.3410   19.9710 C.3   390  GLU390      0.0429
     59  CG       -20.5840  -22.6040   18.6670 C.3   390  GLU390      0.1163
     60  CD       -22.0440  -22.2030   18.7610 C.2   390  GLU390      0.3649
     61  OE1      -22.3230  -21.1260   19.3240 O.co2 390  GLU390     -0.2457
     62  OE2      -22.9090  -22.9700   18.2750 O.co2 390  GLU390     -0.2457
     63  N        -16.8480  -23.3470   21.7900 N.am  391  THR391     -0.1937
     64  CA       -15.8600  -22.9470   22.7740 C.3   391  THR391      0.2028
     65  C        -14.6890  -23.9360   22.7900 C.2   391  THR391      0.2642
     66  O        -14.6820  -24.9090   22.0210 O.2   391  THR391     -0.2714
     67  CB       -16.4800  -22.7760   24.1830 C.3   391  THR391      0.1808
     68  OG1      -15.5740  -22.0460   25.0170 O.3   391  THR391     -0.2208
     69  CG2      -16.8360  -24.1300   24.8340 C.3   391  THR391      0.0379
     70  N        -13.7220  -23.6670   23.6590 N.am  392  LEU392     -0.1963
     71  CA       -12.5690  -24.5560   23.8710 C.3   392  LEU392      0.1713
     72  C        -12.8290  -25.5190   25.0200 C.2   392  LEU392      0.2458
     73  O        -13.4860  -25.1710   26.0070 O.2   392  LEU392     -0.2730
     74  CB       -11.3060  -23.7540   24.2000 C.3   392  LEU392      0.0310
     75  CG       -10.6710  -22.9040   23.1040 C.3   392  LEU392      0.0022
     76  CD1      -11.5090  -21.6470   22.8630 C.3   392  LEU392      0.0001
     77  CD2       -9.2640  -22.5100   23.4970 C.3   392  LEU392      0.0001
     78  N        -12.2820  -26.7390   24.9150 N.am  393  PRO393     -0.2727
     79  CA       -12.2370  -27.5740   26.1010 C.3   393  PRO393      0.1402
     80  C        -11.1600  -27.0380   27.0340 C.2   393  PRO393      0.2269
     81  O        -10.2020  -26.3990   26.5760 O.2   393  PRO393     -0.2865
     82  CB       -11.7990  -28.9470   25.5630 C.3   393  PRO393      0.0296
     83  CG       -11.1660  -28.6880   24.2420 C.3   393  PRO393      0.0237
     84  CD       -11.6200  -27.3520   23.7450 C.3   393  PRO393      0.0939
     85  N         -7.9600  -27.7270   29.2390 N.3   395  VAL395     -0.1245
     86  CA        -6.8200  -28.5840   28.8670 C.3   395  VAL395      0.1561
     87  C         -5.8610  -28.7980   30.0480 C.2   395  VAL395      0.2260
     88  O         -5.5990  -27.8810   30.8320 O.2   395  VAL395     -0.2867
     89  CB        -6.0940  -27.9910   27.6240 C.3   395  VAL395      0.0252
     90  CG1       -4.7310  -28.6460   27.3650 C.3   395  VAL395      0.0019
     91  CG2       -7.0100  -28.1220   26.3850 C.3   395  VAL395      0.0019
     92  N         -7.5470  -32.3600   26.6630 N.3   402  PRO402     -0.2116
     93  CA        -8.7770  -32.0210   27.4140 C.3   402  PRO402      0.1372
     94  C         -8.9900  -32.7060   28.7870 C.2   402  PRO402      0.2244
     95  O         -8.7040  -33.8980   28.9510 O.2   402  PRO402     -0.2868
     96  CB        -9.8810  -32.4530   26.4460 C.3   402  PRO402      0.0268
     97  CG        -9.3220  -32.0600   25.1190 C.3   402  PRO402      0.0207
     98  CD        -7.7890  -32.3360   25.2050 C.3   402  PRO402      0.0892
     99  N         -2.4250  -24.6930   25.3430 N.3   449  ILE449     -0.1231
    100  CA        -3.1220  -23.9970   24.2580 C.3   449  ILE449      0.1692
    101  C         -4.1940  -23.0400   24.7930 C.2   449  ILE449      0.2591
    102  O         -4.3680  -21.9320   24.2540 O.2   449  ILE449     -0.2718
    103  CB        -3.6600  -24.9950   23.1880 C.3   449  ILE449      0.0266
    104  CG1       -4.1370  -24.2530   21.9230 C.3   449  ILE449      0.0019
    105  CG2       -4.7340  -25.9300   23.7390 C.3   449  ILE449      0.0020
    106  CD1       -3.0740  -24.1080   20.9000 C.3   449  ILE449      0.0001
    107  N         -4.8890  -23.4430   25.8530 N.am  450  VAL450     -0.1980
    108  CA        -5.9250  -22.5920   26.4770 C.3   450  VAL450      0.1595
    109  C         -5.2980  -21.3740   27.1680 C.2   450  VAL450      0.2287
    110  O         -5.7790  -20.2280   27.0320 O.2   450  VAL450     -0.2864
    111  CB        -6.8080  -23.4010   27.4460 C.3   450  VAL450      0.0276
    112  CG1       -7.7800  -22.4970   28.2130 C.3   450  VAL450      0.0022
    113  CG2       -7.5860  -24.4470   26.6930 C.3   450  VAL450      0.0022
    114  N         -4.5290  -18.9060   24.5280 N.3   453  PHE453     -0.1241
    115  CA        -5.7570  -18.2890   24.0130 C.3   453  PHE453      0.1605
    116  C         -6.1510  -17.1630   24.9740 C.2   453  PHE453      0.2264
    117  O         -6.3770  -16.0320   24.5690 O.2   453  PHE453     -0.2867
    118  CB        -6.8520  -19.3400   23.9340 C.3   453  PHE453      0.0534
    119  CG        -8.0910  -18.8900   23.2160 C.ar  453  PHE453     -0.0203
    120  CD1       -8.1310  -18.8720   21.8220 C.ar  453  PHE453     -0.0042
    121  CD2       -9.2280  -18.5080   23.9290 C.ar  453  PHE453     -0.0042
    122  CE1       -9.2770  -18.4740   21.1440 C.ar  453  PHE453     -0.0003
    123  CE2      -10.3900  -18.0900   23.2550 C.ar  453  PHE453     -0.0003
    124  CZ       -10.4130  -18.0840   21.8590 C.ar  453  PHE453     -0.0000
    125  N         -9.3410  -14.2230   18.2110 N.3   461  MET461     -0.1230
    126  CA        -9.8270  -15.1380   19.2640 C.3   461  MET461      0.1702
    127  C        -11.1280  -15.8400   18.8880 C.2   461  MET461      0.2593
    128  O        -12.1780  -15.6390   19.5140 O.2   461  MET461     -0.2718
    129  CB        -9.9720  -14.4070   20.5960 C.3   461  MET461      0.0401
    130  CG        -8.6480  -14.1840   21.3300 C.3   461  MET461      0.0596
    131  SD        -8.7830  -13.2040   22.8510 S.3   461  MET461     -0.1393
    132  CE        -9.3200  -14.4100   24.0590 C.3   461  MET461      0.0692
    133  N        -11.0430  -16.6810   17.8670 N.am  462  THR462     -0.1939
    134  CA       -12.2050  -17.3390   17.2810 C.3   462  THR462      0.2028
    135  C        -11.7810  -18.7560   16.9480 C.2   462  THR462      0.2642
    136  O        -10.5860  -19.0490   16.9850 O.2   462  THR462     -0.2714
    137  CB       -12.6060  -16.6430   15.9660 C.3   462  THR462      0.1808
    138  OG1      -11.4510  -16.5430   15.1170 O.3   462  THR462     -0.2208
    139  CG2      -13.1390  -15.2330   16.2350 C.3   462  THR462      0.0379
    140  N        -12.7390  -19.6220   16.6050 N.am  463  LEU463     -0.1977
    141  CA       -12.4040  -20.9620   16.1100 C.3   463  LEU463      0.1596
    142  C        -11.3790  -20.8100   14.9790 C.2   463  LEU463      0.2287
    143  O        -10.2700  -21.3710   15.0420 O.2   463  LEU463     -0.2864
    144  CB       -13.6590  -21.7160   15.6270 C.3   463  LEU463      0.0297
    145  CG       -13.5380  -23.1580   15.0890 C.3   463  LEU463      0.0022
    146  CD1      -12.8320  -24.0970   16.0720 C.3   463  LEU463      0.0001
    147  CD2      -14.8990  -23.7320   14.7090 C.3   463  LEU463      0.0001
    148  N         -7.8550  -19.7070   16.0950 N.3   466  ALA466     -0.1245
    149  CA        -7.1690  -20.8450   16.7140 C.3   466  ALA466      0.1562
    150  C         -6.7080  -21.8690   15.6770 C.2   466  ALA466      0.2260
    151  O         -5.5790  -22.3680   15.7530 O.2   466  ALA466     -0.2867
    152  CB        -8.0870  -21.5210   17.7680 C.3   466  ALA466      0.0290
    153  N         -2.9820  -22.9930   14.7570 N.3   470  MET470     -0.1245
    154  CA        -2.5970  -24.4100   14.8170 C.3   470  MET470      0.1570
    155  C         -1.9910  -24.9440   13.5180 C.2   470  MET470      0.2261
    156  O         -1.6150  -26.1190   13.4410 O.2   470  MET470     -0.2867
    157  CB        -3.7910  -25.2630   15.2310 C.3   470  MET470      0.0387
    158  CG        -4.1390  -25.1600   16.7190 C.3   470  MET470      0.0595
    159  SD        -5.3990  -26.3100   17.2410 S.3   470  MET470     -0.1393
    160  CE        -6.9080  -25.4850   16.7030 C.3   470  MET470      0.0692
@<TRIPOS>BOND
     1   156   155    2
     2   155   154    1
     3    40    41    1
     4   147   145    1
     5   153   154    1
     6   154   157    1
     7    42    41    1
     8    42    43    2
     9   142   143    2
    10   142   141    1
    11   145   144    1
    12   145   146    1
    13   138   137    1
    14    41    44    1
    15   157   158    1
    16   144   141    1
    17   150   151    2
    18   150   149    1
    19   137   139    1
    20   137   134    1
    21   148   149    1
    22   141   140    1
    23   140   135   am
    24    44    46    1
    25    44    45    1
    26   160   159    1
    27   149   152    1
    28   158   159    1
    29    29    28    2
    30   135   136    2
    31   135   134    1
    32    28    27    1
    33   134   133    1
    34    53    47    1
    35    53    52    1
    36    22    21    2
    37   133   127   am
    38    50    49    2
    39    24    23    1
    40    47    48    1
    41   125   126    1
    42    27    26    1
    43    27    30    1
    44    62    60   ar
    45    52    51    1
    46    21    20    1
    47     1     2    1
    48    59    60    1
    49    59    58    1
    50    60    61   ar
    51     9     7   ar
    52     9    10   ar
    53   127   126    1
    54   127   128    2
    55    49    48    1
    56    49    54   am
    57     7     6   ar
    58    48    51    1
    59   126   129    1
    60    30    31    1
    61    23    20    1
    62    23    25    1
    63    20    19    1
    64    10    12   ar
    65    10     8   ar
    66    54    55    1
    67    58    55    1
    68    55    56    1
    69     2     3    1
    70     2     5    1
    71     6     5    1
    72     6     8   ar
    73    12    14   ar
    74    32    31   ar
    75    32    34   ar
    76    31    33   ar
    77     3     4    2
    78   129   130    1
    79     8    11   ar
    80    18    17    2
    81   106   104    1
    82    19    17   am
    83   122   120   ar
    84   122   124   ar
    85    34    35   ar
    86    56    57    2
    87    56    63   am
    88    14    13   ar
    89   130   131    1
    90    33    35   ar
    91    33    36   ar
    92    17    16    1
    93    11    13   ar
    94    63    64    1
    95   120   119   ar
    96   124   123   ar
    97    35    37   ar
    98   104   103    1
    99    36    38   ar
   100    66    65    2
   101    16    15    1
   102    64    65    1
   103    64    67    1
   104    65    70   am
   105   131   132    1
   106    76    75    1
   107    37    39   ar
   108    38    39   ar
   109    75    77    1
   110    75    74    1
   111   103   105    1
   112   103   100    1
   113   119   121   ar
   114   119   118    1
   115   123   121   ar
   116    70    71    1
   117    84    83    1
   118    84    78    1
   119    71    74    1
   120    71    72    1
   121   118   115    1
   122   115   114    1
   123   115   116    1
   124    67    69    1
   125    67    68    1
   126    83    82    1
   127   102   101    2
   128   100   101    1
   129   100    99    1
   130   117   116    2
   131   101   107   am
   132    78    72   am
   133    78    79    1
   134    72    73    2
   135    97    98    1
   136    97    96    1
   137    98    92    1
   138    82    79    1
   139   107   108    1
   140    79    80    1
   141    91    89    1
   142    96    93    1
   143   108   109    1
   144   108   111    1
   145    81    80    2
   146    92    93    1
   147   113   111    1
   148   110   109    2
   149    90    89    1
   150    93    94    1
   151   111   112    1
   152    89    86    1
   153    94    95    2
   154    86    85    1
   155    86    87    1
   156    87    88    2
