@<TRIPOS>MOLECULE
tmp/3dhkB01.pdb
 201 201 0 0 0
SMALL
GASTEIGER

@<TRIPOS>ATOM
      1  N         22.4070   -5.8940   18.2910 N.3    43  HIS43      -0.1241
      2  CA        22.2510   -7.2540   17.8060 C.3    43  HIS43       0.1621
      3  C         21.5070   -7.2970   16.4730 C.2    43  HIS43       0.2264
      4  O         21.5210   -8.3620   15.8570 O.2    43  HIS43      -0.2867
      5  CB        21.5550   -8.1770   18.8080 C.3    43  HIS43       0.0745
      6  CG        20.0610   -8.1250   18.8580 C.ar   43  HIS43       0.0817
      7  ND1       19.3990   -7.3440   19.7910 N.ar   43  HIS43      -0.2268
      8  CD2       19.0890   -8.7630   18.1460 C.ar   43  HIS43       0.1154
      9  CE1       18.0910   -7.4990   19.6230 C.ar   43  HIS43       0.1986
     10  NE2       17.8830   -8.3470   18.6210 N.ar   43  HIS43      -0.2212
     11  N         25.5890  -10.0550   15.3010 N.3    47  TYR47      -0.1241
     12  CA        25.3280  -11.1560   16.2100 C.3    47  TYR47       0.1605
     13  C         26.0060  -12.4120   15.6480 C.2    47  TYR47       0.2264
     14  O         25.3980  -13.2450   14.9720 O.2    47  TYR47      -0.2867
     15  CB        23.8330  -11.3360   16.4680 C.3    47  TYR47       0.0534
     16  CG        23.6220  -12.2220   17.6790 C.ar   47  TYR47      -0.0201
     17  CD1       24.0210  -11.8000   18.9440 C.ar   47  TYR47      -0.0009
     18  CD2       23.0400  -13.4660   17.5220 C.ar   47  TYR47      -0.0009
     19  CE1       23.8070  -12.6530   20.0290 C.ar   47  TYR47       0.0417
     20  CE2       22.8340  -14.3090   18.5950 C.ar   47  TYR47       0.0417
     21  CZ        23.2270  -13.8780   19.8480 C.ar   47  TYR47       0.1957
     22  OH        23.0270  -14.7250   20.9110 O.3    47  TYR47      -0.2866
     23  N         24.7480  -16.0260   15.2050 N.3    50  TRP50      -0.1241
     24  CA        23.7980  -16.2770   14.1180 C.3    50  TRP50       0.1605
     25  C         24.4040  -15.9030   12.7790 C.2    50  TRP50       0.2264
     26  O         23.6930  -15.7660   11.7890 O.2    50  TRP50      -0.2867
     27  CB        22.4980  -15.4900   14.2970 C.3    50  TRP50       0.0550
     28  CG        21.6990  -16.0450   15.4490 C.ar   50  TRP50       0.0003
     29  CD1       22.0000  -17.1790   16.1540 C.ar   50  TRP50       0.0946
     30  CD2       20.5020  -15.5220   16.0350 C.ar   50  TRP50       0.0152
     31  NE1       21.0630  -17.3930   17.1350 N.ar   50  TRP50      -0.2442
     32  CE2       20.1310  -16.3870   17.0830 C.ar   50  TRP50       0.0810
     33  CE3       19.7000  -14.4060   15.7770 C.ar   50  TRP50       0.0012
     34  CZ2       19.0030  -16.1820   17.8770 C.ar   50  TRP50       0.0191
     35  CZ3       18.5820  -14.2070   16.5670 C.ar   50  TRP50       0.0001
     36  CH2       18.2340  -15.0790   17.6040 C.ar   50  TRP50       0.0015
     37  N         27.9080   -9.2590   22.8700 N.3    92  TRP92      -0.1241
     38  CA        27.1640  -10.2830   22.1390 C.3    92  TRP92       0.1605
     39  C         27.4980  -11.6930   22.5990 C.2    92  TRP92       0.2264
     40  O         26.7960  -12.6570   22.2740 O.2    92  TRP92      -0.2867
     41  CB        27.4340  -10.1770   20.6360 C.3    92  TRP92       0.0550
     42  CG        28.8690  -10.1550   20.2130 C.ar   92  TRP92       0.0003
     43  CD1       29.5950   -9.0120   20.0180 C.ar   92  TRP92       0.0946
     44  CD2       29.7560  -11.2510   19.9350 C.ar   92  TRP92       0.0152
     45  NE1       30.8820   -9.3300   19.6340 N.ar   92  TRP92      -0.2442
     46  CE2       30.9980  -10.6920   19.5770 C.ar   92  TRP92       0.0810
     47  CE3       29.6090  -12.6430   19.9560 C.ar   92  TRP92       0.0012
     48  CZ2       32.1040  -11.4780   19.2370 C.ar   92  TRP92       0.0191
     49  CZ3       30.7040  -13.4270   19.6210 C.ar   92  TRP92       0.0001
     50  CH2       31.9180  -12.8300   19.2720 C.ar   92  TRP92       0.0015
     51  N         27.8140  -12.8720   25.7570 N.3    94  GLU94      -0.1231
     52  CA        27.1660  -13.3840   26.9510 C.3    94  GLU94       0.1699
     53  C         25.7020  -12.9950   27.0970 C.2    94  GLU94       0.2592
     54  O         24.8200  -13.8540   27.0480 O.2    94  GLU94      -0.2718
     55  CB        27.9320  -12.8870   28.1990 C.3    94  GLU94       0.0402
     56  CG        27.3640  -13.5510   29.4400 C.3    94  GLU94       0.1161
     57  CD        27.7030  -12.8700   30.7470 C.2    94  GLU94       0.3649
     58  OE1       28.6330  -12.0300   30.7600 O.co2  94  GLU94      -0.2457
     59  OE2       27.0240  -13.1920   31.7490 O.co2  94  GLU94      -0.2457
     60  N         25.4270  -11.7070   27.2940 N.am   95  ASN95      -0.1960
     61  CA        24.0850  -11.2930   27.6920 C.3    95  ASN95       0.1819
     62  C         23.5500  -10.0950   26.9210 C.2    95  ASN95       0.2621
     63  O         22.5330   -9.5590   27.3780 O.2    95  ASN95      -0.2715
     64  CB        24.0680  -10.9570   29.1900 C.3    95  ASN95       0.1195
     65  CG        25.1040   -9.9140   29.5660 C.2    95  ASN95       0.2630
     66  OD1       25.8000   -9.3810   28.6980 O.2    95  ASN95      -0.2716
     67  ND2       25.2130   -9.6090   30.8540 N.am   95  ASN95      -0.0877
     68  N         24.1740   -9.6550   25.8430 N.am   96  LEU96      -0.1977
     69  CA        23.6350   -8.4880   25.1130 C.3    96  LEU96       0.1596
     70  C         23.7300   -7.2240   25.9410 C.2    96  LEU96       0.2287
     71  O         23.0080   -6.2440   25.7770 O.2    96  LEU96      -0.2864
     72  CB        22.2000   -8.8150   24.6750 C.3    96  LEU96       0.0297
     73  CG        22.0150   -9.2460   23.2220 C.3    96  LEU96       0.0022
     74  CD1       23.0960  -10.2150   22.7800 C.3    96  LEU96       0.0001
     75  CD2       20.6260   -9.8300   22.9710 C.3    96  LEU96       0.0001
     76  N         15.1390  -15.3110   35.4450 N.3   169  THR169     -0.1218
     77  CA        16.0310  -15.7320   34.3620 C.3   169  THR169      0.1862
     78  C         17.3600  -16.2680   34.8690 C.2   169  THR169      0.2287
     79  O         17.7920  -15.9420   35.9800 O.2   169  THR169     -0.2866
     80  CB        16.3310  -14.5420   33.4140 C.3   169  THR169      0.1770
     81  OG1       17.1640  -14.9470   32.3170 O.3   169  THR169     -0.2211
     82  CG2       17.0870  -13.4520   34.1620 C.3   169  THR169      0.0375
     83  N         20.0150  -15.6520   32.7830 N.3   171  ILE171     -0.1245
     84  CA        20.9170  -14.6910   32.1970 C.3   171  ILE171      0.1561
     85  C         21.4100  -13.7180   33.2630 C.2   171  ILE171      0.2260
     86  O         20.6460  -13.3470   34.1700 O.2   171  ILE171     -0.2867
     87  CB        20.2180  -13.9120   31.0590 C.3   171  ILE171      0.0252
     88  CG1       19.5340  -14.7830   30.0080 C.3   171  ILE171      0.0019
     89  CG2       21.2090  -12.9640   30.3910 C.3   171  ILE171      0.0019
     90  CD1       20.5220  -15.5460   29.1440 C.3   171  ILE171      0.0001
     91  N          4.0180   -8.8570   24.8850 N.3   191  ASP191     -0.1225
     92  CA         5.4840   -8.8860   24.9060 C.3   191  ASP191      0.1805
     93  C          5.9570   -8.5030   23.5080 C.2   191  ASP191      0.2598
     94  O          5.1240   -8.5290   22.6010 O.2   191  ASP191     -0.2718
     95  CB         5.9730  -10.2700   25.2940 C.3   191  ASP191      0.1424
     96  CG         7.4500  -10.4250   25.5750 C.2   191  ASP191      0.3668
     97  OD1        8.1980   -9.4260   25.6020 O.co2 191  ASP191     -0.2456
     98  OD2        7.9040  -11.5820   25.7870 O.co2 191  ASP191     -0.2456
     99  N          7.2410   -8.2020   23.3960 N.am  192  ALA192     -0.1966
    100  CA         7.9110   -8.1210   22.1180 C.3   192  ALA192      0.1728
    101  C          8.2340   -9.5530   21.6720 C.2   192  ALA192      0.2616
    102  O          8.0360  -10.4700   22.4650 O.2   192  ALA192     -0.2715
    103  CB         9.1680   -7.2740   22.1840 C.3   192  ALA192      0.0334
    104  N          8.6920   -9.6770   20.4360 N.am  193  CYS193     -0.1954
    105  CA         9.0370  -10.9900   19.8810 C.3   193  CYS193      0.1843
    106  C          9.9640  -10.7790   18.6910 C.2   193  CYS193      0.2625
    107  O         10.3220   -9.6440   18.3430 O.2   193  CYS193     -0.2714
    108  CB         7.7750  -11.7690   19.5230 C.3   193  CYS193      0.0997
    109  SG         7.9230  -13.5820   19.4190 S.3   193  CYS193     -0.0797
    110  N         10.3440  -11.9090   18.1150 N.am  194  GLU194     -0.1977
    111  CA        11.1610  -11.9970   16.9230 C.3   194  GLU194      0.1602
    112  C         10.8310  -10.9030   15.9140 C.2   194  GLU194      0.2287
    113  O          9.6860  -10.8330   15.4630 O.2   194  GLU194     -0.2864
    114  CB        10.9020  -13.3530   16.2500 C.3   194  GLU194      0.0415
    115  CG        12.0680  -14.3120   16.1580 C.3   194  GLU194      0.1163
    116  CD        11.9280  -15.2960   15.0050 C.2   194  GLU194      0.3649
    117  OE1       12.5910  -15.1010   13.9640 O.co2 194  GLU194     -0.2457
    118  OE2       11.1540  -16.2700   15.1220 O.co2 194  GLU194     -0.2457
    119  N         12.9670   -6.6070   17.6970 N.3   197  SER197     -0.1273
    120  CA        14.3370   -6.2270   18.0310 C.3   197  SER197      0.1575
    121  C         14.6890   -4.8270   17.5630 C.3   197  SER197      0.2036
    122  O         14.3580   -4.5770   16.4050 O.3   197  SER197     -0.2187
    123  CB        15.3580   -7.1710   17.3530 C.3   197  SER197      0.2036
    124  OG        15.4250   -8.4100   18.0550 O.3   197  SER197     -0.2187
    125  N         14.1320   -2.5870   22.3520 N.3   217  VAL217     -0.1231
    126  CA        13.7730   -4.0020   22.4160 C.3   217  VAL217      0.1692
    127  C         15.0260   -4.8530   22.3270 C.2   217  VAL217      0.2593
    128  O         15.6840   -4.7830   21.2980 O.2   217  VAL217     -0.2718
    129  CB        12.8360   -4.3610   21.2520 C.3   217  VAL217      0.0266
    130  CG1       12.4740   -5.8390   21.3190 C.3   217  VAL217      0.0020
    131  CG2       11.5810   -3.4880   21.2840 C.3   217  VAL217      0.0020
    132  N         15.3360   -5.6310   23.3600 N.am  218  SER218     -0.1938
    133  CA        16.6310   -6.3100   23.3070 C.3   218  SER218      0.2055
    134  C         16.5150   -7.8160   23.3810 C.2   218  SER218      0.2643
    135  O         16.9220   -8.5120   22.4350 O.2   218  SER218     -0.2714
    136  CB        17.5110   -5.7470   24.4270 C.3   218  SER218      0.2130
    137  OG        18.7860   -6.3600   24.4340 O.3   218  SER218     -0.2179
    138  N         16.0020   -8.3990   24.4610 N.am  219  TRP219     -0.1959
    139  CA        15.9740   -9.8610   24.4550 C.3   219  TRP219      0.1771
    140  C         14.8720  -10.4010   25.3490 C.2   219  TRP219      0.2620
    141  O         14.3840   -9.7110   26.2360 O.2   219  TRP219     -0.2715
    142  CB        17.3100  -10.4570   24.8910 C.3   219  TRP219      0.0590
    143  CG        17.8290  -10.0660   26.2360 C.ar  219  TRP219      0.0006
    144  CD1       18.6130   -8.9760   26.5310 C.ar  219  TRP219      0.0946
    145  CD2       17.6270  -10.7400   27.4970 C.ar  219  TRP219      0.0152
    146  NE1       18.9140   -8.9180   27.8710 N.ar  219  TRP219     -0.2442
    147  CE2       18.3170   -9.9980   28.4770 C.ar  219  TRP219      0.0810
    148  CE3       16.9340  -11.9010   27.8680 C.ar  219  TRP219      0.0012
    149  CZ2       18.3440  -10.3600   29.8250 C.ar  219  TRP219      0.0191
    150  CZ3       16.9590  -12.2680   29.2230 C.ar  219  TRP219      0.0001
    151  CH2       17.6570  -11.4930   30.1640 C.ar  219  TRP219      0.0015
    152  N         14.5170  -11.6570   25.0910 N.am  220  GLY220     -0.1940
    153  CA        13.5550  -12.3310   25.9530 C.3   220  GLY220      0.2014
    154  C         13.6790  -13.8290   25.7080 C.2   220  GLY220      0.2639
    155  O         14.2410  -14.2680   24.7050 O.2   220  GLY220     -0.2714
    156  N         13.1460  -14.6110   26.6250 N.am  221  GLU221     -0.1963
    157  CA        13.2010  -16.0660   26.4930 C.3   221  GLU221      0.1733
    158  C         11.8760  -16.5390   25.9170 C.2   221  GLU221      0.2617
    159  O         10.8600  -16.5710   26.6180 O.2   221  GLU221     -0.2715
    160  CB        13.4940  -16.6860   27.8620 C.3   221  GLU221      0.0429
    161  CG        13.9440  -18.1300   27.7940 C.3   221  GLU221      0.1163
    162  CD        14.5080  -18.6510   29.1010 C.2   221  GLU221      0.3649
    163  OE1       14.8350  -17.8380   29.9900 O.co2 221  GLU221     -0.2457
    164  OE2       14.6170  -19.8930   29.2140 O.co2 221  GLU221     -0.2457
    165  N         11.8630  -16.8820   24.6310 N.am  222  GLY222     -0.1940
    166  CA        10.5480  -17.1150   24.0290 C.3   222  GLY222      0.2014
    167  C          9.8180  -15.7730   23.9700 C.2   222  GLY222      0.2639
    168  O         10.4820  -14.7250   24.0260 O.2   222  GLY222     -0.2714
    169  N          8.4950  -15.7870   23.8580 N.am  223  CYS223     -0.1967
    170  CA         7.7410  -14.5380   23.7890 C.3   223  CYS223      0.1712
    171  C          6.4420  -14.6710   24.5770 C.2   223  CYS223      0.2296
    172  O          5.6820  -15.6030   24.3120 O.2   223  CYS223     -0.2864
    173  CB         7.3840  -14.1260   22.3610 C.3   223  CYS223      0.0983
    174  SG         8.7450  -14.1310   21.1810 S.3   223  CYS223     -0.0798
    175  N         10.2280   -9.1980   28.9530 N.3   230  GLY230     -0.1210
    176  CA        11.0490   -8.6510   27.8790 C.3   230  GLY230      0.1956
    177  C         12.1270   -7.7860   28.5220 C.2   230  GLY230      0.2612
    178  O         11.8860   -7.1660   29.5630 O.2   230  GLY230     -0.2717
    179  N         13.2940   -7.7790   27.8970 N.am  231  PHE231     -0.1962
    180  CA        14.4360   -7.0220   28.4100 C.3   231  PHE231      0.1771
    181  C         14.7830   -5.9560   27.3680 C.2   231  PHE231      0.2619
    182  O         14.8300   -6.2470   26.1820 O.2   231  PHE231     -0.2715
    183  CB        15.6390   -7.8940   28.7360 C.3   231  PHE231      0.0574
    184  CG        15.4980   -8.5490   30.1110 C.ar  231  PHE231     -0.0200
    185  CD1       14.6300   -9.6110   30.2720 C.ar  231  PHE231     -0.0042
    186  CD2       16.2110   -8.0900   31.2000 C.ar  231  PHE231     -0.0042
    187  CE1       14.4540  -10.2340   31.5030 C.ar  231  PHE231     -0.0003
    188  CE2       16.0780   -8.7020   32.4400 C.ar  231  PHE231     -0.0003
    189  CZ        15.2060   -9.7700   32.5770 C.ar  231  PHE231     -0.0000
    190  N         14.9900   -4.7540   27.8880 N.am  232  TYR232     -0.1974
    191  CA        15.1920   -3.5390   27.0980 C.3   232  TYR232      0.1639
    192  C         16.5170   -2.8720   27.4510 C.2   232  TYR232      0.2290
    193  O         16.8790   -2.7280   28.6260 O.2   232  TYR232     -0.2864
    194  CB        13.9930   -2.6060   27.3420 C.3   232  TYR232      0.0560
    195  CG        12.6960   -3.2800   26.9420 C.ar  232  TYR232     -0.0198
    196  CD1       11.9830   -4.0910   27.8270 C.ar  232  TYR232     -0.0009
    197  CD2       12.1910   -3.1060   25.6550 C.ar  232  TYR232     -0.0009
    198  CE1       10.8010   -4.6950   27.4290 C.ar  232  TYR232      0.0417
    199  CE2       11.0110   -3.7220   25.2740 C.ar  232  TYR232      0.0417
    200  CZ        10.3170   -4.5070   26.1610 C.ar  232  TYR232      0.1957
    201  OH         9.1560   -5.1110   25.7310 O.3   232  TYR232     -0.2866
@<TRIPOS>BOND
     1    26    25    2
     2    25    24    1
     3   117   116   ar
     4    24    27    1
     5    24    23    1
     6    27    28    1
     7    14    13    2
     8   116   118   ar
     9   116   115    1
    10    11    12    1
    11    28    30   ar
    12    28    29   ar
    13   113   112    2
    14    13    12    1
    15    33    30   ar
    16    33    35   ar
    17     4     3    2
    18   112   111    1
    19    30    32   ar
    20    29    31   ar
    21   115   114    1
    22    12    15    1
    23   114   111    1
    24   122   121    1
    25    15    16    1
    26     3     2    1
    27    35    36   ar
    28   111   110    1
    29    32    31   ar
    30    32    34   ar
    31   123   120    1
    32   123   124    1
    33    18    16   ar
    34    18    20   ar
    35   121   120    1
    36    36    34   ar
    37    16    17   ar
    38   119   120    1
    39     2     1    1
    40     2     5    1
    41   110   106   am
    42     8    10   ar
    43     8     6   ar
    44   107   106    2
    45    20    21   ar
    46    10     9   ar
    47   106   105    1
    48     5     6    1
    49     6     7   ar
    50    17    19   ar
    51    48    50   ar
    52    48    46   ar
    53    50    49   ar
    54   109   108    1
    55   109   174    1
    56   108   105    1
    57    46    45   ar
    58    46    44   ar
    59    49    47   ar
    60     9     7   ar
    61    45    43   ar
    62    21    19   ar
    63    21    22    1
    64   105   104    1
    65    44    47   ar
    66    44    42   ar
    67    43    42   ar
    68    42    41    1
    69   104   101   am
    70    41    38    1
    71   174   173    1
    72   129   131    1
    73   129   130    1
    74   129   126    1
    75   128   127    2
    76   101   100    1
    77   101   102    2
    78   100   103    1
    79   100    99    1
    80    38    39    1
    81    38    37    1
    82    40    39    2
    83   127   126    1
    84   127   132   am
    85   125   126    1
    86   173   170    1
    87   135   134    2
    88    94    93    2
    89    74    73    1
    90    75    73    1
    91    73    72    1
    92   133   132    1
    93   133   134    1
    94   133   136    1
    95   134   138   am
    96    99    93   am
    97    93    92    1
    98   170   169    1
    99   170   171    1
   100   169   167   am
   101   167   168    2
   102   167   166    1
   103   166   165    1
   104   172   171    2
   105   136   137    1
   106   139   138    1
   107   139   142    1
   108   139   140    1
   109   165   158   am
   110    72    69    1
   111   155   154    2
   112    91    92    1
   113   142   143    1
   114    92    95    1
   115   152   140   am
   116   152   153    1
   117    69    68    1
   118    69    70    1
   119   199   197   ar
   120   199   200   ar
   121    95    96    1
   122   140   141    2
   123    96    97   ar
   124    96    98   ar
   125   197   195   ar
   126   154   153    1
   127   154   156   am
   128   201   200    1
   129    51    52    1
   130    71    70    2
   131    68    62   am
   132   158   157    1
   133   158   159    2
   134   200   198   ar
   135   182   181    2
   136   143   144   ar
   137   143   145   ar
   138   157   156    1
   139   157   160    1
   140   144   146   ar
   141    62    63    2
   142    62    61    1
   143   195   194    1
   144   195   196   ar
   145    52    53    1
   146    52    55    1
   147    54    53    2
   148    53    60   am
   149   191   194    1
   150   191   192    1
   151   191   190    1
   152    60    61    1
   153   181   190   am
   154   181   180    1
   155   198   196   ar
   156   192   193    2
   157   145   148   ar
   158   145   147   ar
   159    61    64    1
   160   161   160    1
   161   161   162    1
   162   148   150   ar
   163   146   147   ar
   164   176   177    1
   165   176   175    1
   166   179   180    1
   167   179   177   am
   168    55    56    1
   169   180   183    1
   170   147   149   ar
   171   177   178    2
   172    66    65    2
   173   183   184    1
   174   162   164   ar
   175   162   163   ar
   176    90    88    1
   177    64    65    1
   178   150   151   ar
   179    56    57    1
   180    65    67   am
   181   149   151   ar
   182    88    87    1
   183   184   185   ar
   184   184   186   ar
   185   185   187   ar
   186    89    87    1
   187    57    58   ar
   188    57    59   ar
   189    87    84    1
   190   186   188   ar
   191   187   189   ar
   192    84    83    1
   193    84    85    1
   194    81    80    1
   195   188   189   ar
   196    85    86    2
   197    80    82    1
   198    80    77    1
   199    77    78    1
   200    77    76    1
   201    78    79    2
