@<TRIPOS>MOLECULE
tmp/3dhoD01.pdb
 77 72 0 0 0
SMALL
GASTEIGER

@<TRIPOS>ATOM
      1  N         27.1660  105.5680   52.3550 N.3    81  ASN81      -0.1240
      2  CA        27.2620  106.3070   51.0870 C.3    81  ASN81       0.1653
      3  C         26.1700  105.8490   50.1220 C.2    81  ASN81       0.2266
      4  O         25.9330  104.6360   49.9680 O.2    81  ASN81      -0.2867
      5  CB        28.6190  106.1080   50.3940 C.3    81  ASN81       0.1155
      6  CG        29.8130  106.4320   51.2860 C.2    81  ASN81       0.2627
      7  OD1       29.6890  107.0600   52.3520 O.2    81  ASN81      -0.2716
      8  ND2       30.9940  106.0070   50.8350 N.am   81  ASN81      -0.0877
      9  N         25.4080  108.0610   43.5520 N.3    84  MET84      -0.1245
     10  CA        25.1260  109.4470   43.1510 C.3    84  MET84       0.1570
     11  C         25.4860  109.8910   41.7180 C.2    84  MET84       0.2261
     12  O         25.6130  111.0930   41.4500 O.2    84  MET84      -0.2867
     13  CB        25.6460  110.4420   44.2140 C.3    84  MET84       0.0387
     14  CG        27.1070  110.3140   44.5490 C.3    84  MET84       0.0595
     15  SD        27.5460  111.3410   45.9830 S.3    84  MET84      -0.1393
     16  CE        29.3060  111.4120   45.6590 C.3    84  MET84       0.0692
     17  N         31.7420  103.9220   45.1230 N.3   109  PRO109     -0.2102
     18  CA        33.1950  104.0000   45.4050 C.3   109  PRO109      0.1504
     19  C         33.4880  104.5740   46.8040 C.2   109  PRO109      0.2576
     20  O         32.7830  105.4790   47.2640 O.2   109  PRO109     -0.2718
     21  CB        33.7210  104.9300   44.2980 C.3   109  PRO109      0.0282
     22  CG        32.5170  105.7700   43.9110 C.3   109  PRO109      0.0208
     23  CD        31.3550  104.8120   44.0130 C.3   109  PRO109      0.0893
     24  N         34.4730  104.0080   47.4990 N.am  110  ILE110     -0.1966
     25  CA        34.7120  104.4420   48.8600 C.3   110  ILE110      0.1727
     26  C         35.5300  105.7240   48.8770 C.2   110  ILE110      0.2616
     27  O         36.2170  106.0550   47.9040 O.2   110  ILE110     -0.2715
     28  CB        35.3080  103.3220   49.7940 C.3   110  ILE110      0.0290
     29  CG1       36.8050  103.1110   49.5440 C.3   110  ILE110      0.0022
     30  CG2       34.4470  102.0140   49.7520 C.3   110  ILE110      0.0023
     31  CD1       37.5260  102.4460   50.7110 C.3   110  ILE110      0.0001
     32  N         35.4080  106.4620   49.9730 N.am  111  LYS111     -0.1977
     33  CA        36.2000  107.6600   50.1830 C.3   111  LYS111      0.1596
     34  C         37.6030  107.2870   50.6610 C.2   111  LYS111      0.2287
     35  O         38.4770  108.1430   50.7660 O.2   111  LYS111     -0.2864
     36  CB        35.4940  108.6010   51.1620 C.3   111  LYS111      0.0298
     37  CG        34.3130  109.3310   50.5130 C.3   111  LYS111      0.0038
     38  CD        33.5660  110.1830   51.5120 C.3   111  LYS111      0.0206
     39  CE        32.0870  110.2790   51.1370 C.3   111  LYS111      0.1093
     40  NZ        31.2370  109.1720   51.7050 N.3   111  LYS111     -0.1314
     41  N         34.4810  111.5620   59.4800 N.3   129  MET129     -0.1245
     42  CA        33.8050  111.1640   58.2470 C.3   129  MET129      0.1570
     43  C         34.6600  110.1510   57.4550 C.2   129  MET129      0.2261
     44  O         35.8410  109.9380   57.7930 O.2   129  MET129     -0.2867
     45  CB        33.3990  112.4200   57.4380 C.3   129  MET129      0.0387
     46  CG        32.3230  113.2860   58.1590 C.3   129  MET129      0.0595
     47  SD        30.7300  112.4640   58.4220 S.3   129  MET129     -0.1393
     48  CE        30.1130  112.3160   56.7370 C.3   129  MET129      0.0692
     49  N         33.7450  118.1640   62.9210 N.3   145  VAL145     -0.1245
     50  CA        33.3120  117.2050   61.9100 C.3   145  VAL145      0.1561
     51  C         34.4530  117.1890   60.8860 C.2   145  VAL145      0.2260
     52  O         34.6520  118.1450   60.1320 O.2   145  VAL145     -0.2867
     53  CB        31.9640  117.5980   61.2420 C.3   145  VAL145      0.0252
     54  CG1       31.5810  116.5590   60.1900 C.3   145  VAL145      0.0019
     55  CG2       30.8440  117.7040   62.2900 C.3   145  VAL145      0.0019
     56  N         36.3260  116.1190   57.7750 N.3   147  VAL147     -0.1245
     57  CA        36.0060  115.6340   56.4270 C.3   147  VAL147      0.1561
     58  C         37.2460  115.4020   55.5640 C.2   147  VAL147      0.2260
     59  O         37.2150  114.6380   54.5970 O.2   147  VAL147     -0.2867
     60  CB        34.9440  116.5380   55.7180 C.3   147  VAL147      0.0252
     61  CG1       33.6930  116.6820   56.6030 C.3   147  VAL147      0.0019
     62  CG2       35.4960  117.8590   55.4330 C.3   147  VAL147      0.0019
     63  N         33.4360  122.5980   61.8640 N.3   159  ASN159     -0.1226
     64  CA        32.6310  121.7970   60.9780 C.3   159  ASN159      0.1770
     65  C         32.3530  122.5870   59.6970 C.2   159  ASN159      0.2439
     66  O         31.4850  123.4740   59.7100 O.2   159  ASN159     -0.2733
     67  CB        31.3220  121.3970   61.6710 C.3   159  ASN159      0.1168
     68  CG        30.3410  120.7070   60.7110 C.2   159  ASN159      0.2627
     69  OD1       30.7220  120.2760   59.6380 O.2   159  ASN159     -0.2716
     70  ND2       29.1050  120.5980   61.1160 N.am  159  ASN159     -0.0877
     71  N         33.0870  122.2770   58.5890 N.am  160  PRO160     -0.2729
     72  CA        34.1080  121.2370   58.4340 C.3   160  PRO160      0.1401
     73  C         35.3730  121.5850   59.2280 C.2   160  PRO160      0.2269
     74  O         35.7170  122.7650   59.3660 O.2   160  PRO160     -0.2865
     75  CB        34.4030  121.2620   56.9200 C.3   160  PRO160      0.0296
     76  CG        34.1330  122.6730   56.5180 C.3   160  PRO160      0.0237
     77  CD        32.9010  123.0300   57.3320 C.3   160  PRO160      0.0939
@<TRIPOS>BOND
     1    12    11    2
     2    11    10    1
     3    10     9    1
     4    10    13    1
     5    22    23    1
     6    22    21    1
     7    23    17    1
     8    13    14    1
     9    21    18    1
    10    14    15    1
    11    17    18    1
    12    18    19    1
    13    16    15    1
    14    19    20    2
    15    19    24   am
    16    24    25    1
    17    27    26    2
    18    25    26    1
    19    25    28    1
    20    26    32   am
    21    29    28    1
    22    29    31    1
    23    30    28    1
    24     4     3    2
    25    32    33    1
    26     3     2    1
    27    33    34    1
    28    33    36    1
    29     5     2    1
    30     5     6    1
    31    37    36    1
    32    37    38    1
    33    34    35    2
    34     8     6   am
    35     2     1    1
    36    39    38    1
    37    39    40    1
    38     6     7    2
    39    59    58    2
    40    62    60    1
    41    58    57    1
    42    60    57    1
    43    60    61    1
    44    57    56    1
    45    76    75    1
    46    76    77    1
    47    48    47    1
    48    75    72    1
    49    77    71    1
    50    45    46    1
    51    45    42    1
    52    43    44    2
    53    43    42    1
    54    46    47    1
    55    42    41    1
    56    72    71    1
    57    72    73    1
    58    71    65   am
    59    73    74    2
    60    69    68    2
    61    65    66    2
    62    65    64    1
    63    52    51    2
    64    54    53    1
    65    68    70   am
    66    68    67    1
    67    51    50    1
    68    64    67    1
    69    64    63    1
    70    53    50    1
    71    53    55    1
    72    50    49    1
