@<TRIPOS>MOLECULE
tmp/3dhoD00.pdb
 70 67 0 0 0
SMALL
GASTEIGER

@<TRIPOS>ATOM
      1  N         44.6220  112.9670   70.2390 N.3   121  TRP121     -0.1241
      2  CA        43.5250  113.2620   71.1510 C.3   121  TRP121      0.1605
      3  C         42.3250  113.7620   70.3380 C.2   121  TRP121      0.2264
      4  O         42.4230  114.7890   69.6580 O.2   121  TRP121     -0.2867
      5  CB        43.9510  114.3050   72.2070 C.3   121  TRP121      0.0550
      6  CG        42.8090  114.8420   73.0710 C.ar  121  TRP121      0.0003
      7  CD1       41.6700  114.1720   73.4620 C.ar  121  TRP121      0.0946
      8  CD2       42.7330  116.1420   73.6780 C.ar  121  TRP121      0.0152
      9  NE1       40.8910  114.9940   74.2630 N.ar  121  TRP121     -0.2442
     10  CE2       41.5280  116.1970   74.4150 C.ar  121  TRP121      0.0810
     11  CE3       43.5890  117.2640   73.6870 C.ar  121  TRP121      0.0012
     12  CZ2       41.1300  117.3490   75.1370 C.ar  121  TRP121      0.0191
     13  CZ3       43.1920  118.4050   74.4000 C.ar  121  TRP121      0.0001
     14  CH2       41.9810  118.4360   75.1120 C.ar  121  TRP121      0.0015
     15  N         45.4830  117.0380   67.5710 N.3   139  ILE139     -0.1245
     16  CA        44.4370  117.2790   68.5580 C.3   139  ILE139      0.1561
     17  C         43.2390  117.7780   67.7570 C.2   139  ILE139      0.2260
     18  O         43.3550  118.7550   67.0010 O.2   139  ILE139     -0.2867
     19  CB        44.8480  118.3520   69.6150 C.3   139  ILE139      0.0252
     20  CG1       45.9920  117.8480   70.5160 C.3   139  ILE139      0.0019
     21  CG2       43.6440  118.7960   70.4540 C.3   139  ILE139      0.0019
     22  CD1       46.5360  118.9180   71.5020 C.3   139  ILE139      0.0001
     23  N         39.5200  119.2960   68.1270 N.3   141  ALA141     -0.1231
     24  CA        38.6520  119.9950   69.0690 C.3   141  ALA141      0.1694
     25  C         37.2870  119.3100   69.1970 C.2   141  ALA141      0.2591
     26  O         36.7610  118.7620   68.2190 O.2   141  ALA141     -0.2718
     27  CB        38.4780  121.4720   68.6230 C.3   141  ALA141      0.0304
     28  N         36.7230  119.3440   70.4020 N.am  142  ALA142     -0.1980
     29  CA        35.3920  118.8110   70.6310 C.3   142  ALA142      0.1597
     30  C         34.4410  119.3480   69.5640 C.2   142  ALA142      0.2287
     31  O         34.5830  120.5140   69.1260 O.2   142  ALA142     -0.2864
     32  CB        34.8740  119.1830   72.0190 C.3   142  ALA142      0.0319
     33  N         46.7400  121.1650   65.6760 N.3   155  LEU155     -0.1231
     34  CA        45.4680  121.4090   66.3270 C.3   155  LEU155      0.1693
     35  C         44.4760  121.6710   65.1880 C.2   155  LEU155      0.2592
     36  O         44.7570  122.4730   64.2780 O.2   155  LEU155     -0.2718
     37  CB        45.5530  122.6270   67.2430 C.3   155  LEU155      0.0284
     38  CG        46.4580  122.5240   68.4880 C.3   155  LEU155      0.0019
     39  CD1       47.1150  123.8530   68.7830 C.3   155  LEU155      0.0001
     40  CD2       45.7230  122.0330   69.7090 C.3   155  LEU155      0.0001
     41  N         43.3250  121.0130   65.2510 N.am  156  ALA156     -0.1966
     42  CA        42.2670  121.1890   64.2440 C.3   156  ALA156      0.1728
     43  C         40.9170  121.2870   64.9200 C.2   156  ALA156      0.2617
     44  O         40.7310  120.7790   66.0380 O.2   156  ALA156     -0.2715
     45  CB        42.2780  120.0350   63.2340 C.3   156  ALA156      0.0334
     46  N         39.9600  121.9210   64.2320 N.am  157  GLY157     -0.1940
     47  CA        38.6220  122.0820   64.7910 C.3   157  GLY157      0.2014
     48  C         37.6290  122.6560   63.7960 C.2   157  GLY157      0.2639
     49  O         38.0320  123.2250   62.7740 O.2   157  GLY157     -0.2714
     50  N         36.3470  122.5030   64.1220 N.am  158  GLY158     -0.1954
     51  CA        35.2640  123.0940   63.3420 C.3   158  GLY158      0.1869
     52  C         34.4440  122.0820   62.5640 C.2   158  GLY158      0.2309
     53  O         34.7230  120.8760   62.5780 O.2   158  GLY158     -0.2863
     54  N         44.1870  124.5420   62.5620 N.3   164  ILE164     -0.1231
     55  CA        44.2260  125.8380   63.2390 C.3   164  ILE164      0.1692
     56  C         45.6640  126.3000   63.3830 C.2   164  ILE164      0.2591
     57  O         46.0070  127.4020   62.9600 O.2   164  ILE164     -0.2718
     58  CB        43.5530  125.7610   64.6240 C.3   164  ILE164      0.0266
     59  CG1       42.0500  125.5080   64.4470 C.3   164  ILE164      0.0019
     60  CG2       43.8070  127.0360   65.4370 C.3   164  ILE164      0.0020
     61  CD1       41.4040  124.7890   65.6100 C.3   164  ILE164      0.0001
     62  N         46.5020  125.4410   63.9670 N.am  165  LYS165     -0.1980
     63  CA        47.9350  125.7190   64.0890 C.3   165  LYS165      0.1596
     64  C         48.7290  124.4600   64.4140 C.2   165  LYS165      0.2287
     65  O         48.1860  123.4890   64.9500 O.2   165  LYS165     -0.2864
     66  CB        48.1880  126.7650   65.1660 C.3   165  LYS165      0.0298
     67  CG        47.5870  126.4290   66.5340 C.3   165  LYS165      0.0038
     68  CD        48.5160  126.8850   67.6670 C.3   165  LYS165      0.0206
     69  CE        49.1300  128.2450   67.4020 C.3   165  LYS165      0.1093
     70  NZ        50.5800  128.2300   67.7710 N.3   165  LYS165     -0.1314
@<TRIPOS>BOND
     1    54    55    1
     2    52    53    2
     3    52    51    1
     4    49    48    2
     5    57    56    2
     6    45    42    1
     7    55    56    1
     8    55    58    1
     9    51    50    1
    10    56    62   am
    11    48    50   am
    12    48    47    1
    13    62    63    1
    14    63    64    1
    15    63    66    1
    16    46    47    1
    17    46    43   am
    18    42    43    1
    19    42    41    1
    20    36    35    2
    21    64    65    2
    22    59    58    1
    23    59    61    1
    24    58    60    1
    25    43    44    2
    26    66    67    1
    27    35    41   am
    28    35    34    1
    29    33    34    1
    30    34    37    1
    31    67    68    1
    32    18    17    2
    33    37    38    1
    34    69    68    1
    35    69    70    1
    36    15    16    1
    37    17    16    1
    38    23    24    1
    39    26    25    2
    40    38    39    1
    41    38    40    1
    42    16    19    1
    43    27    24    1
    44    24    25    1
    45    31    30    2
    46    25    28   am
    47    30    29    1
    48    19    21    1
    49    19    20    1
    50     4     3    2
    51     1     2    1
    52     3     2    1
    53    28    29    1
    54    20    22    1
    55    29    32    1
    56     2     5    1
    57     5     6    1
    58     6     7   ar
    59     6     8   ar
    60     7     9   ar
    61     8    11   ar
    62     8    10   ar
    63    11    13   ar
    64     9    10   ar
    65    13    14   ar
    66    10    12   ar
    67    14    12   ar
