@<TRIPOS>MOLECULE
tmp/3dhvA00.pdb
 183 175 0 0 0
SMALL
GASTEIGER

@<TRIPOS>ATOM
      1  N         22.0610   -8.5790    1.5600 N.3   151  THR151     -0.1218
      2  CA        21.8220   -7.6800    2.6870 C.3   151  THR151      0.1862
      3  C         22.4360   -6.3140    2.3910 C.2   151  THR151      0.2287
      4  O         23.1820   -6.1580    1.4220 O.2   151  THR151     -0.2866
      5  CB        22.4330   -8.2230    4.0040 C.3   151  THR151      0.1770
      6  OG1       23.8260   -8.5040    3.8130 O.3   151  THR151     -0.2211
      7  CG2       21.7170   -9.4950    4.4450 C.3   151  THR151      0.0375
      8  N         14.0400  -11.7100    2.4220 N.3   190  PHE190     -0.1227
      9  CA        14.4020  -11.5120    3.8350 C.3   190  PHE190      0.1736
     10  C         14.5020  -12.9180    4.4510 C.2   190  PHE190      0.2595
     11  O         13.5310  -13.6760    4.4180 O.2   190  PHE190     -0.2718
     12  CB        13.3050  -10.6630    4.5000 C.3   190  PHE190      0.0547
     13  CG        13.4950  -10.4270    5.9740 C.ar  190  PHE190     -0.0202
     14  CD1       14.7680  -10.3380    6.5360 C.ar  190  PHE190     -0.0042
     15  CD2       12.3890  -10.2130    6.7900 C.ar  190  PHE190     -0.0042
     16  CE1       14.9330  -10.0370    7.8820 C.ar  190  PHE190     -0.0003
     17  CE2       12.5420   -9.9070    8.1480 C.ar  190  PHE190     -0.0003
     18  CZ        13.8140   -9.8190    8.6910 C.ar  190  PHE190     -0.0000
     19  N         15.6600  -13.2710    5.0140 N.am  191  ASP191     -0.1974
     20  CA        15.8270  -14.6270    5.5370 C.3   191  ASP191      0.1709
     21  C         14.9420  -15.0520    6.7010 C.2   191  ASP191      0.2293
     22  O         14.9880  -16.2020    7.1210 O.2   191  ASP191     -0.2864
     23  CB        17.3080  -14.9410    5.8400 C.3   191  ASP191      0.1436
     24  CG        17.7710  -14.4540    7.2050 C.2   191  ASP191      0.3671
     25  OD1       18.8370  -14.9320    7.6520 O.co2 191  ASP191     -0.2456
     26  OD2       17.0980  -13.6070    7.8230 O.co2 191  ASP191     -0.2456
     27  N         12.0600  -12.8180   15.4010 N.3   263  CYS263     -0.1221
     28  CA        13.4620  -12.5840   15.0650 C.3   263  CYS263      0.1808
     29  C         13.5600  -11.2980   14.2520 C.2   263  CYS263      0.2602
     30  O         12.5480  -10.7970   13.7560 O.2   263  CYS263     -0.2717
     31  CB        14.0170  -13.7520   14.2370 C.3   263  CYS263      0.0970
     32  SG        15.8330  -13.7750   14.0740 S.3   263  CYS263     -0.0800
     33  N         14.7690  -10.7540   14.1250 N.am  264  GLY264     -0.1942
     34  CA        14.9460   -9.5500   13.3260 C.3   264  GLY264      0.2014
     35  C         15.0860   -8.2300   14.0590 C.2   264  GLY264      0.2639
     36  O         15.8580   -7.3780   13.6240 O.2   264  GLY264     -0.2714
     37  N         14.3330   -8.0500   15.1430 N.am  265  GLU265     -0.1963
     38  CA        14.3860   -6.8230   15.9410 C.3   265  GLU265      0.1733
     39  C         14.1950   -7.1350   17.4290 C.2   265  GLU265      0.2616
     40  O         13.9870   -8.2800   17.8230 O.2   265  GLU265     -0.2715
     41  CB        13.2710   -5.8440   15.5580 C.3   265  GLU265      0.0429
     42  CG        12.7790   -5.8870   14.1300 C.3   265  GLU265      0.1163
     43  CD        11.6110   -4.9380   13.9190 C.2   265  GLU265      0.3649
     44  OE1       11.8510   -3.7410   13.6580 O.co2 265  GLU265     -0.2457
     45  OE2       10.4540   -5.3870   14.0340 O.co2 265  GLU265     -0.2457
     46  N         14.2440   -6.0900   18.2460 N.am  266  VAL266     -0.1963
     47  CA        14.0440   -6.2430   19.6780 C.3   266  VAL266      0.1727
     48  C         12.5890   -6.6250   19.9370 C.2   266  VAL266      0.2616
     49  O         11.6680   -6.0040   19.4070 O.2   266  VAL266     -0.2715
     50  CB        14.3490   -4.9260   20.4440 C.3   266  VAL266      0.0290
     51  CG1       13.8650   -5.0420   21.8950 C.3   266  VAL266      0.0023
     52  CG2       15.8440   -4.6360   20.4200 C.3   266  VAL266      0.0023
     53  N         12.3830   -7.6630   20.7340 N.am  267  LEU267     -0.1977
     54  CA        11.0320   -8.0860   21.0820 C.3   267  LEU267      0.1596
     55  C         10.7850   -7.4370   22.4300 C.2   267  LEU267      0.2287
     56  O         11.4140   -7.8040   23.4190 O.2   267  LEU267     -0.2864
     57  CB        10.9430   -9.6160   21.2090 C.3   267  LEU267      0.0297
     58  CG         9.6000  -10.1270   21.7440 C.3   267  LEU267      0.0022
     59  CD1        8.4860   -9.7960   20.7350 C.3   267  LEU267      0.0001
     60  CD2        9.6810  -11.6350   22.0220 C.3   267  LEU267      0.0001
     61  N         11.7190  -16.0750   21.4090 N.3   286  ASN286     -0.1225
     62  CA        12.4730  -14.9390   20.8960 C.3   286  ASN286      0.1785
     63  C         13.7380  -15.5900   20.3500 C.2   286  ASN286      0.2598
     64  O         14.2650  -16.5260   20.9560 O.2   286  ASN286     -0.2718
     65  CB        12.8190  -13.9200   21.9920 C.3   286  ASN286      0.1169
     66  CG        13.4170  -12.6300   21.4220 C.2   286  ASN286      0.2627
     67  OD1       13.1630  -12.2760   20.2660 O.2   286  ASN286     -0.2716
     68  ND2       14.1980  -11.9120   22.2390 N.am  286  ASN286     -0.0877
     69  N         14.1970  -15.1270   19.1930 N.am  287  THR287     -0.1939
     70  CA        15.3950  -15.6730   18.5740 C.3   287  THR287      0.2028
     71  C         16.2480  -14.5380   18.0390 C.2   287  THR287      0.2642
     72  O         15.7500  -13.4380   17.8300 O.2   287  THR287     -0.2714
     73  CB        15.0290  -16.6280   17.4210 C.3   287  THR287      0.1808
     74  OG1       14.3980  -15.8890   16.3700 O.3   287  THR287     -0.2208
     75  CG2       14.0700  -17.7050   17.9200 C.3   287  THR287      0.0379
     76  N         17.5280  -14.8060   17.8040 N.am  288  TYR288     -0.1959
     77  CA        18.4370  -13.7750   17.3180 C.3   288  TYR288      0.1774
     78  C         19.4800  -14.2940   16.3470 C.2   288  TYR288      0.2659
     79  O         20.0190  -15.3830   16.5250 O.2   288  TYR288     -0.2711
     80  CB        19.1710  -13.1170   18.4990 C.3   288  TYR288      0.0574
     81  CG        20.4950  -12.4630   18.1130 C.ar  288  TYR288     -0.0198
     82  CD1       20.5630  -11.1010   17.7880 C.ar  288  TYR288     -0.0009
     83  CD2       21.6650  -13.2170   18.0200 C.ar  288  TYR288     -0.0009
     84  CE1       21.7620  -10.5130   17.3780 C.ar  288  TYR288      0.0417
     85  CE2       22.8700  -12.6390   17.6050 C.ar  288  TYR288      0.0417
     86  CZ        22.9070  -11.2880   17.2860 C.ar  288  TYR288      0.1957
     87  OH        24.0820  -10.7250   16.8590 O.3   288  TYR288     -0.2866
     88  N         19.7880  -13.4810   15.3400 N.am  289  GLY289     -0.1717
     89  CA        20.8080  -13.8530   14.3800 C.2   289  GLY289      0.1465
     90  C         20.8570  -13.0030   13.1230 C.2   289  GLY289      0.2662
     91  O         19.8500  -12.4120   12.7290 O.2   289  GLY289     -0.2684
     92  N         22.0350  -12.9060   12.4830 N.am  290  PRO290     -0.2683
     93  CA        22.2320  -12.1360   11.2530 C.3   290  PRO290      0.1538
     94  C         22.0040  -13.0810   10.0860 C.2   290  PRO290      0.2599
     95  O         22.0610  -14.2990   10.2560 O.2   290  PRO290     -0.2715
     96  CB        23.6950  -11.7120   11.3470 C.3   290  PRO290      0.0310
     97  CG        24.3230  -12.9250   11.9440 C.3   290  PRO290      0.0237
     98  CD        23.3400  -13.2750   13.0690 C.3   290  PRO290      0.0942
     99  N         21.7430  -12.5300    8.9070 N.am  291  THR291     -0.1937
    100  CA        21.5390  -13.3580    7.7260 C.3   291  THR291      0.2028
    101  C         22.8240  -14.1750    7.5300 C.2   291  THR291      0.2642
    102  O         22.7820  -15.3390    7.1150 O.2   291  THR291     -0.2714
    103  CB        21.2770  -12.4740    6.4730 C.3   291  THR291      0.1808
    104  OG1       20.1330  -11.6420    6.7090 O.3   291  THR291     -0.2208
    105  CG2       21.0110  -13.3320    5.2470 C.3   291  THR291      0.0379
    106  N         23.9540  -13.5540    7.8700 N.am  292  GLU292     -0.1976
    107  CA        25.2820  -14.1620    7.7540 C.3   292  GLU292      0.1602
    108  C         25.4810  -15.4370    8.5790 C.2   292  GLU292      0.2287
    109  O         26.4550  -16.1660    8.3760 O.2   292  GLU292     -0.2864
    110  CB        26.3670  -13.1370    8.1200 C.3   292  GLU292      0.0415
    111  CG        26.6070  -12.0560    7.0520 C.3   292  GLU292      0.1163
    112  CD        25.6440  -10.8700    7.1460 C.2   292  GLU292      0.3649
    113  OE1       24.6860  -10.9200    7.9450 O.co2 292  GLU292     -0.2457
    114  OE2       25.8500   -9.8810    6.4050 O.co2 292  GLU292     -0.2457
    115  N         19.7810  -17.2220    9.3520 N.3   295  VAL295     -0.1245
    116  CA        18.5500  -16.8850   10.0600 C.3   295  VAL295      0.1561
    117  C         18.6850  -16.5470   11.5390 C.2   295  VAL295      0.2260
    118  O         18.5430  -15.3880   11.9170 O.2   295  VAL295     -0.2867
    119  CB        17.4910  -18.0150    9.8860 C.3   295  VAL295      0.0252
    120  CG1       16.1150  -17.5150   10.2970 C.3   295  VAL295      0.0019
    121  CG2       17.4640  -18.4890    8.4300 C.3   295  VAL295      0.0019
    122  N         18.0050  -12.6930   24.1960 N.3   315  VAL315     -0.1245
    123  CA        17.6790  -13.2210   22.8750 C.3   315  VAL315      0.1561
    124  C         17.8530  -14.7340   22.7950 C.2   315  VAL315      0.2260
    125  O         17.5710  -15.3390   21.7610 O.2   315  VAL315     -0.2867
    126  CB        18.4830  -12.5260   21.7460 C.3   315  VAL315      0.0252
    127  CG1       18.0920  -11.0510   21.6800 C.3   315  VAL315      0.0019
    128  CG2       19.9680  -12.6810   21.9730 C.3   315  VAL315      0.0019
    129  N         29.2980   -9.7410   14.1140 N.3   375  THR375     -0.1218
    130  CA        27.9690   -9.1990   13.8400 C.3   375  THR375      0.1862
    131  C         27.7970   -7.6870   13.7620 C.2   375  THR375      0.2287
    132  O         26.9040   -7.2040   13.0670 O.2   375  THR375     -0.2866
    133  CB        26.9390   -9.7140   14.8800 C.3   375  THR375      0.1770
    134  OG1       27.2430   -9.1690   16.1750 O.3   375  THR375     -0.2211
    135  CG2       26.9690  -11.2390   14.9500 C.3   375  THR375      0.0375
    136  N         27.0570   -6.2000   16.2880 N.3   377  ASP377     -0.1239
    137  CA        26.0940   -6.0590   17.3790 C.3   377  ASP377      0.1674
    138  C         26.8090   -6.0190   18.7220 C.2   377  ASP377      0.2266
    139  O         27.8520   -6.6480   18.9050 O.2   377  ASP377     -0.2867
    140  CB        25.1180   -7.2390   17.4010 C.3   377  ASP377      0.1410
    141  CG        24.1570   -7.2290   16.2350 C.2   377  ASP377      0.3668
    142  OD1       23.7630   -8.3250   15.7960 O.co2 377  ASP377     -0.2456
    143  OD2       23.7840   -6.1370   15.7710 O.co2 377  ASP377     -0.2456
    144  N         21.1210   -8.8650   23.9720 N.3   388  TYR388     -0.1241
    145  CA        21.3690   -7.9240   22.8910 C.3   388  TYR388      0.1605
    146  C         21.2680   -6.5120   23.4410 C.2   388  TYR388      0.2264
    147  O         20.2840   -6.1790   24.0990 O.2   388  TYR388     -0.2867
    148  CB        20.3080   -8.1260   21.8100 C.3   388  TYR388      0.0534
    149  CG        20.3640   -7.1580   20.6510 C.ar  388  TYR388     -0.0201
    150  CD1       21.2510   -7.3580   19.5930 C.ar  388  TYR388     -0.0009
    151  CD2       19.4960   -6.0630   20.5890 C.ar  388  TYR388     -0.0009
    152  CE1       21.2710   -6.5010   18.4970 C.ar  388  TYR388      0.0417
    153  CE2       19.5060   -5.1970   19.4920 C.ar  388  TYR388      0.0417
    154  CZ        20.3980   -5.4280   18.4510 C.ar  388  TYR388      0.1957
    155  OH        20.4130   -4.5930   17.3630 O.3   388  TYR388     -0.2866
    156  N         22.9920   -2.1470   18.0060 N.3   391  ARG391     -0.1245
    157  CA        23.9470   -2.1150   16.9020 C.3   391  ARG391      0.1563
    158  C         25.0870   -1.1930   17.3030 C.2   391  ARG391      0.2260
    159  O         24.8530   -0.0760   17.7560 O.2   391  ARG391     -0.2867
    160  CB        23.2880   -1.5640   15.6310 C.3   391  ARG391      0.0307
    161  CG        22.2310   -2.4630   15.0140 C.3   391  ARG391      0.0489
    162  CD        22.8710   -3.6970   14.4030 C.3   391  ARG391      0.2205
    163  NE        23.7670   -3.3680   13.2930 N.pl3 391  ARG391     -0.0865
    164  CZ        24.6650   -4.2110   12.7910 C.cat 391  ARG391      0.5346
    165  NH1       25.4390   -3.8440   11.7780 N.pl3 391  ARG391      0.1354
    166  NH2       24.8010   -5.4220   13.3140 N.pl3 391  ARG391      0.1354
    167  N         10.2650   -5.5250    4.5950 N.3   484  ASN484     -0.1240
    168  CA        10.6340   -6.7400    5.3220 C.3   484  ASN484      0.1653
    169  C          9.8530   -6.8790    6.6290 C.2   484  ASN484      0.2266
    170  O          9.7540   -7.9670    7.1910 O.2   484  ASN484     -0.2867
    171  CB        12.1310   -6.7660    5.6200 C.3   484  ASN484      0.1155
    172  CG        12.9550   -7.1700    4.4130 C.2   484  ASN484      0.2627
    173  OD1       12.4250   -7.6960    3.4330 O.2   484  ASN484     -0.2716
    174  ND2       14.2580   -6.9450    4.4850 N.am  484  ASN484     -0.0877
    175  N         10.3710   -4.5530    9.2960 N.3   486  LYS486     -0.1245
    176  CA        11.1310   -3.9190   10.3720 C.3   486  LYS486      0.1561
    177  C         10.8360   -2.4230   10.4610 C.2   486  LYS486      0.2260
    178  O         10.3490   -1.8190    9.5050 O.2   486  LYS486     -0.2867
    179  CB        12.6380   -4.0970   10.1550 C.3   486  LYS486      0.0271
    180  CG        13.1680   -5.5180   10.3070 C.3   486  LYS486      0.0035
    181  CD        14.6870   -5.4640   10.4630 C.3   486  LYS486      0.0206
    182  CE        15.3160   -6.8300   10.6920 C.3   486  LYS486      0.1093
    183  NZ        15.6020   -7.5170    9.4210 N.3   486  LYS486     -0.1314
@<TRIPOS>BOND
     1     4     3    2
     2     1     2    1
     3     3     2    1
     4     8     9    1
     5     2     5    1
     6   173   172    2
     7     6     5    1
     8     9    10    1
     9     9    12    1
    10     5     7    1
    11   172   174   am
    12   172   171    1
    13    11    10    2
    14    10    19   am
    15    12    13    1
    16   167   168    1
    17    19    20    1
    18   105   103    1
    19   168   171    1
    20   168   169    1
    21    20    23    1
    22    20    21    1
    23    23    24    1
    24    13    14   ar
    25    13    15   ar
    26   114   112   ar
    27   103   104    1
    28   103   100    1
    29    14    16   ar
    30   169   170    2
    31    21    22    2
    32    15    17   ar
    33   111   112    1
    34   111   110    1
    35   102   101    2
    36   112   113   ar
    37    24    25   ar
    38    24    26   ar
    39   101   100    1
    40   101   106   am
    41   100    99    1
    42   107   106    1
    43   107   110    1
    44   107   108    1
    45    16    18   ar
    46    17    18   ar
    47   109   108    2
    48   121   119    1
    49    99    94   am
    50   175   176    1
    51   115   116    1
    52   183   182    1
    53   178   177    2
    54   119   116    1
    55   119   120    1
    56   116   117    1
    57    94    95    2
    58    94    93    1
    59   179   180    1
    60   179   176    1
    61   180   181    1
    62   176   177    1
    63   181   182    1
    64    93    96    1
    65    93    92    1
    66    96    97    1
    67   117   118    2
    68   165   164    1
    69    97    98    1
    70    92    98    1
    71    92    90   am
    72    91    90    2
    73   164   163    2
    74   164   166    1
    75   132   131    2
    76    90    89    1
    77   163   162    1
    78    34    35    1
    79    34    33    1
    80    36    35    2
    81    44    43   ar
    82    30    29    2
    83   131   130    1
    84   130   129    1
    85   130   133    1
    86    43    45   ar
    87    43    42    1
    88    35    37   am
    89    32    31    1
    90    33    29   am
    91    42    41    1
    92    31    28    1
    93    29    28    1
    94    89    88    2
    95   162   161    1
    96   133   135    1
    97   133   134    1
    98   161   160    1
    99    28    27    1
   100    37    38    1
   101    88    78    1
   102    41    38    1
   103   160   157    1
   104   143   141   ar
   105   142   141   ar
   106    38    39    1
   107   141   140    1
   108   136   137    1
   109    78    79    2
   110    78    77    1
   111    74    73    1
   112    87    86    1
   113   157   158    1
   114   157   156    1
   115    86    84   ar
   116    86    85   ar
   117   158   159    2
   118    77    76    1
   119    77    80    1
   120   155   154    1
   121    84    82   ar
   122   137   140    1
   123   137   138    1
   124    73    75    1
   125    73    70    1
   126    39    40    2
   127    39    46   am
   128    85    83   ar
   129    82    81   ar
   130    76    71   am
   131    72    71    2
   132    83    81   ar
   133    71    70    1
   134    81    80    1
   135    46    47    1
   136   154   152   ar
   137   154   153   ar
   138   152   150   ar
   139    70    69    1
   140   138   139    2
   141    69    63   am
   142    49    48    2
   143   153   151   ar
   144   150   149   ar
   145    47    48    1
   146    47    50    1
   147    48    53   am
   148    67    66    2
   149    63    62    1
   150    63    64    2
   151    52    50    1
   152    50    51    1
   153   151   149   ar
   154   149   148    1
   155    53    54    1
   156    59    58    1
   157    62    61    1
   158    62    65    1
   159    54    57    1
   160    54    55    1
   161    57    58    1
   162    66    65    1
   163    66    68   am
   164   127   126    1
   165    58    60    1
   166   126   128    1
   167   126   123    1
   168   125   124    2
   169   148   145    1
   170    55    56    2
   171   124   123    1
   172   123   122    1
   173   145   146    1
   174   145   144    1
   175   146   147    2
