@<TRIPOS>MOLECULE
tmp/3dhyD01.pdb
 204 194 0 0 0
SMALL
GASTEIGER

@<TRIPOS>ATOM
      1  N         63.2580   12.9270    3.1270 N.3    58  LEU58      -0.1231
      2  CA        62.1590   12.7650    4.0590 C.3    58  LEU58       0.1693
      3  C         60.9080   13.3020    3.4030 C.2    58  LEU58       0.2592
      4  O         60.9360   14.3960    2.8340 O.2    58  LEU58      -0.2718
      5  CB        62.4650   13.5400    5.3360 C.3    58  LEU58       0.0284
      6  CG        61.9320   13.0750    6.6910 C.3    58  LEU58       0.0019
      7  CD1       62.4120   14.0690    7.7040 C.3    58  LEU58       0.0001
      8  CD2       60.4190   12.9960    6.7270 C.3    58  LEU58       0.0001
      9  N         59.8270   12.5210    3.4780 N.am   59  HIS59      -0.1976
     10  CA        58.5310   12.7860    2.8370 C.3    59  HIS59       0.1656
     11  C         58.2470   14.2770    2.8390 C.2    59  HIS59       0.2291
     12  O         58.3020   14.9250    3.8840 O.2    59  HIS59      -0.2864
     13  CB        57.3960   12.0040    3.5460 C.3    59  HIS59       0.0771
     14  CG        57.6920   10.5360    3.7470 C.ar   59  HIS59       0.0820
     15  ND1       57.4620    9.5840    2.7710 N.ar   59  HIS59      -0.2267
     16  CD2       58.1580    9.8600    4.8220 C.ar   59  HIS59       0.1154
     17  CE1       57.8050    8.3890    3.2320 C.ar   59  HIS59       0.1986
     18  NE2       58.2360    8.5300    4.4720 N.ar   59  HIS59      -0.2212
     19  N         56.0400   16.5540    3.1530 N.3    61  THR61      -0.1218
     20  CA        54.6960   16.7780    3.5930 C.3    61  THR61       0.1862
     21  C         54.6410   18.1640    4.2280 C.2    61  THR61       0.2287
     22  O         55.6730   18.8080    4.3670 O.2    61  THR61      -0.2866
     23  CB        54.3540   15.7740    4.6620 C.3    61  THR61       0.1770
     24  OG1       55.3050   15.9370    5.7190 O.3    61  THR61      -0.2211
     25  CG2       54.4710   14.3800    4.1190 C.3    61  THR61       0.0375
     26  N         53.9450   18.7740    7.3380 N.3    63  GLN63      -0.1231
     27  CA        54.6990   18.6140    8.5770 C.3    63  GLN63       0.1698
     28  C         56.1890   18.7810    8.3270 C.2    63  GLN63       0.2592
     29  O         56.8750   19.5340    9.0490 O.2    63  GLN63      -0.2718
     30  CB        54.3740   17.2820    9.2220 C.3    63  GLN63       0.0381
     31  CG        52.8870   17.1680    9.6250 C.3    63  GLN63       0.0905
     32  CD        51.9590   16.9880    8.4550 C.2    63  GLN63       0.2608
     33  OE1       52.3290   16.4400    7.4440 O.2    63  GLN63      -0.2717
     34  NE2       50.7600   17.4820    8.5760 N.am   63  GLN63      -0.0878
     35  N         56.7000   18.1140    7.2890 N.am   64  THR64      -0.1953
     36  CA        58.1140   18.2550    6.9370 C.3    64  THR64       0.1897
     37  C         58.5160   19.7290    6.5700 C.2    64  THR64       0.2313
     38  O         59.6100   20.1640    6.8970 O.2    64  THR64      -0.2863
     39  CB        58.5220   17.2280    5.8510 C.3    64  THR64       0.1794
     40  OG1       58.7760   15.9460    6.4790 O.3    64  THR64      -0.2208
     41  CG2       59.7610   17.6720    5.1420 C.3    64  THR64       0.0378
     42  N         61.3340   10.7310    0.2460 N.3    83  CYS83      -0.1221
     43  CA        61.9850    9.4220    0.3560 C.3    83  CYS83       0.1808
     44  C         61.0290    8.2920   -0.0560 C.2    83  CYS83       0.2601
     45  O         61.3840    7.1200    0.0020 O.2    83  CYS83      -0.2717
     46  CB        62.5160    9.1890    1.7650 C.3    83  CYS83       0.0970
     47  SG        61.2500    9.1660    3.0130 S.3    83  CYS83      -0.0800
     48  N         59.8460    8.6660   -0.5120 N.am   84  ASN84      -0.1974
     49  CA        58.8900    7.7590   -1.1180 C.3    84  ASN84       0.1688
     50  C         58.4450    8.4280   -2.4000 C.2    84  ASN84       0.2292
     51  O         58.4510    9.6570   -2.4640 O.2    84  ASN84      -0.2864
     52  CB        57.7000    7.5480   -0.1760 C.3    84  ASN84       0.1181
     53  CG        56.8970    6.3290   -0.5280 C.2    84  ASN84       0.2629
     54  OD1       57.2890    5.2020   -0.2140 O.2    84  ASN84      -0.2716
     55  ND2       55.7680    6.5400   -1.1930 N.am   84  ASN84      -0.0877
     56  N         65.4480    9.5930    6.0190 N.3   146  ASP146     -0.1225
     57  CA        64.3040    8.7730    6.4110 C.3   146  ASP146      0.1805
     58  C         64.3110    7.5010    5.5570 C.2   146  ASP146      0.2598
     59  O         63.9140    7.5160    4.3900 O.2   146  ASP146     -0.2718
     60  CB        63.0070    9.5680    6.2420 C.3   146  ASP146      0.1424
     61  CG        61.8220    8.9400    6.9630 C.2   146  ASP146      0.3668
     62  OD1       61.8280    7.7190    7.1990 O.co2 146  ASP146     -0.2456
     63  OD2       60.8620    9.6650    7.2710 O.co2 146  ASP146     -0.2456
     64  N         64.7990    6.4120    6.1440 N.am  147  GLY147     -0.1957
     65  CA        64.8880    5.1240    5.4600 C.3   147  GLY147      0.1869
     66  C         66.2770    4.7270    4.9920 C.2   147  GLY147      0.2309
     67  O         66.4970    3.5670    4.6870 O.2   147  GLY147     -0.2863
     68  N         65.6450    8.8700   10.8030 N.3   208  GLU208     -0.1231
     69  CA        64.2560    8.9710   11.2690 C.3   208  GLU208      0.1699
     70  C         63.5680    7.6430   11.6350 C.2   208  GLU208      0.2592
     71  O         62.9820    7.5230   12.7290 O.2   208  GLU208     -0.2718
     72  CB        63.4380    9.7090   10.2130 C.3   208  GLU208      0.0402
     73  CG        61.9420    9.8250   10.4970 C.3   208  GLU208      0.1161
     74  CD        61.5950   10.9680   11.4220 C.2   208  GLU208      0.3649
     75  OE1       62.5370   11.6370   11.9040 O.co2 208  GLU208     -0.2457
     76  OE2       60.3780   11.1920   11.6540 O.co2 208  GLU208     -0.2457
     77  N         63.6340    6.6400   10.7550 N.am  209  THR209     -0.1953
     78  CA        62.7920    5.4400   10.9740 C.3   209  THR209      0.1897
     79  C         63.5730    4.1460   11.2450 C.2   209  THR209      0.2313
     80  O         64.7750    4.0850   10.9800 O.2   209  THR209     -0.2863
     81  CB        61.8770    5.2510    9.7710 C.3   209  THR209      0.1794
     82  OG1       60.7050    4.4960   10.1070 O.3   209  THR209     -0.2208
     83  CG2       62.6350    4.6030    8.6160 C.3   209  THR209      0.0378
     84  N         63.7400    1.0980    9.8310 N.3   211  THR211     -0.1218
     85  CA        64.3510    0.4300    8.6780 C.3   211  THR211      0.1862
     86  C         65.6580    1.1140    8.3960 C.2   211  THR211      0.2287
     87  O         66.6610    0.4550    8.2660 O.2   211  THR211     -0.2866
     88  CB        63.3870    0.4550    7.4650 C.3   211  THR211      0.1770
     89  OG1       62.5670   -0.7170    7.5060 O.3   211  THR211     -0.2211
     90  CG2       64.1100    0.5250    6.1180 C.3   211  THR211      0.0375
     91  N         59.7810    9.6130   19.9840 N.3   238  LYS238     -0.1245
     92  CA        59.6230    9.2540   18.5710 C.3   238  LYS238      0.1561
     93  C         59.0900    7.8130   18.4990 C.2   238  LYS238      0.2260
     94  O         57.9280    7.6460   18.2260 O.2   238  LYS238     -0.2867
     95  CB        60.9180    9.4920   17.7830 C.3   238  LYS238      0.0271
     96  CG        60.8390    9.4470   16.2400 C.3   238  LYS238      0.0035
     97  CD        60.4650    8.0420   15.7250 C.3   238  LYS238      0.0206
     98  CE        60.3530    8.0460   14.2510 C.3   238  LYS238      0.1093
     99  NZ        60.0890    6.6890   13.6480 N.3   238  LYS238     -0.1314
    100  N         55.2810    8.6740   17.5630 N.3   242  ASP242     -0.1225
    101  CA        55.1910    8.6370   16.1200 C.3   242  ASP242      0.1805
    102  C         54.7840    7.2280   15.6510 C.2   242  ASP242      0.2597
    103  O         53.6500    7.0030   15.2890 O.2   242  ASP242     -0.2718
    104  CB        56.5340    9.0500   15.5440 C.3   242  ASP242      0.1424
    105  CG        56.6080    8.8770   14.0610 C.2   242  ASP242      0.3668
    106  OD1       57.0430    9.8360   13.4130 O.co2 242  ASP242     -0.2456
    107  OD2       56.2520    7.7910   13.5510 O.co2 242  ASP242     -0.2456
    108  N         55.6960    6.2710   15.6780 N.am  243  ASN243     -0.1974
    109  CA        55.4000    4.8980   15.2260 C.3   243  ASN243      0.1688
    110  C         54.0670    4.2750   15.7080 C.2   243  ASN243      0.2292
    111  O         53.4380    3.5010   14.9720 O.2   243  ASN243     -0.2864
    112  CB        56.5770    3.9630   15.6020 C.3   243  ASN243      0.1181
    113  CG        57.8830    4.3810   14.9800 C.2   243  ASN243      0.2629
    114  OD1       58.6660    3.5440   14.4880 O.2   243  ASN243     -0.2716
    115  ND2       58.1450    5.6770   14.9940 N.am  243  ASN243     -0.0877
    116  N         54.6940   -0.6410    6.4590 N.3   352  GLY352     -0.1210
    117  CA        56.0600   -0.8170    6.9040 C.3   352  GLY352      0.1956
    118  C         57.0980   -0.0930    6.0640 C.2   352  GLY352      0.2612
    119  O         57.3510    1.0970    6.2730 O.2   352  GLY352     -0.2717
    120  N         57.7130   -0.8070    5.1170 N.am  353  HIS353     -0.1961
    121  CA        58.8840   -0.2930    4.4300 C.3   353  HIS353      0.1787
    122  C         58.9280   -0.5800    2.9260 C.2   353  HIS353      0.2620
    123  O         58.4540   -1.6350    2.4440 O.2   353  HIS353     -0.2715
    124  CB        60.1420   -0.8380    5.1090 C.3   353  HIS353      0.0785
    125  CG        60.6590   -2.0990    4.4940 C.ar  353  HIS353      0.0821
    126  ND1       61.9970   -2.4200    4.4710 N.ar  353  HIS353     -0.2267
    127  CD2       60.0200   -3.1120    3.8680 C.ar  353  HIS353      0.1154
    128  CE1       62.1600   -3.5770    3.8600 C.ar  353  HIS353      0.1986
    129  NE2       60.9790   -4.0030    3.4600 N.ar  353  HIS353     -0.2212
    130  N         59.5290    0.3610    2.2040 N.am  354  PHE354     -0.1974
    131  CA        59.7520    0.2560    0.7590 C.3   354  PHE354      0.1639
    132  C         58.5440   -0.2750   -0.0100 C.2   354  PHE354      0.2290
    133  O         57.5020    0.3740   -0.0290 O.2   354  PHE354     -0.2864
    134  CB        61.0640   -0.4910    0.4480 C.3   354  PHE354      0.0560
    135  CG        62.2790    0.1180    1.1290 C.ar  354  PHE354     -0.0200
    136  CD1       62.9450   -0.5670    2.1390 C.ar  354  PHE354     -0.0042
    137  CD2       62.7350    1.3900    0.7740 C.ar  354  PHE354     -0.0042
    138  CE1       64.0460   -0.0030    2.7860 C.ar  354  PHE354     -0.0003
    139  CE2       63.8350    1.9560    1.4060 C.ar  354  PHE354     -0.0003
    140  CZ        64.4910    1.2530    2.4220 C.ar  354  PHE354     -0.0000
    141  N         54.2400    2.5400    1.4150 N.3   397  LEU397     -0.1245
    142  CA        53.5670    3.1690    2.5670 C.3   397  LEU397      0.1561
    143  C         52.2050    3.7420    2.1850 C.2   397  LEU397      0.2260
    144  O         52.1080    4.7020    1.4010 O.2   397  LEU397     -0.2867
    145  CB        54.4500    4.2590    3.2000 C.3   397  LEU397      0.0270
    146  CG        55.6100    3.8220    4.0800 C.3   397  LEU397      0.0019
    147  CD1       56.4800    2.8100    3.3970 C.3   397  LEU397      0.0001
    148  CD2       56.4470    5.0260    4.4950 C.3   397  LEU397      0.0001
    149  N         49.7900    5.0010    4.3320 N.3   399  ASN399     -0.1225
    150  CA        49.3930    6.2240    5.0410 C.3   399  ASN399      0.1785
    151  C         49.8310    7.5520    4.4140 C.2   399  ASN399      0.2597
    152  O         49.0920    8.5410    4.5030 O.2   399  ASN399     -0.2718
    153  CB        49.7910    6.1610    6.5080 C.3   399  ASN399      0.1169
    154  CG        51.2780    6.0030    6.7250 C.2   399  ASN399      0.2627
    155  OD1       52.0270    5.5650    5.8560 O.2   399  ASN399     -0.2716
    156  ND2       51.7130    6.3600    7.9200 N.am  399  ASN399     -0.0877
    157  N         51.0120    7.5550    3.7810 N.am  400  LEU400     -0.1980
    158  CA        51.6130    8.7250    3.0660 C.3   400  LEU400      0.1596
    159  C         51.3670    8.7260    1.5450 C.2   400  LEU400      0.2287
    160  O         51.5010    9.7550    0.8920 O.2   400  LEU400     -0.2864
    161  CB        53.1190    8.7600    3.3060 C.3   400  LEU400      0.0297
    162  CG        53.5080    9.1520    4.7200 C.3   400  LEU400      0.0022
    163  CD1       54.5650    8.2360    5.2810 C.3   400  LEU400      0.0001
    164  CD2       53.9680   10.5940    4.6190 C.3   400  LEU400      0.0001
    165  N         47.9430   11.2750    4.0430 N.3   404  THR404     -0.1203
    166  CA        48.8960   12.3710    4.2090 C.3   404  THR404      0.1994
    167  C         49.9200   12.1100    5.2920 C.2   404  THR404      0.2618
    168  O         50.7310   12.9830    5.6180 O.2   404  THR404     -0.2717
    169  CB        48.1560   13.7720    4.3120 C.3   404  THR404      0.1784
    170  OG1       47.6700   14.0200    5.6370 O.3   404  THR404     -0.2211
    171  CG2       46.9950   13.8460    3.3820 C.3   404  THR404      0.0376
    172  N         49.9570   10.8830    5.8110 N.am  405  GLY405     -0.1942
    173  CA        50.9100   10.6080    6.8810 C.3   405  GLY405      0.2014
    174  C         50.3360   10.9860    8.2390 C.2   405  GLY405      0.2638
    175  O         49.1600   11.3630    8.3360 O.2   405  GLY405     -0.2714
    176  N         51.1580   10.8710    9.2890 N.am  406  HIS406     -0.1973
    177  CA        50.7070   11.0480   10.6640 C.3   406  HIS406      0.1656
    178  C         50.3680   12.5490   10.8320 C.2   406  HIS406      0.2291
    179  O         50.9320   13.3550   10.1300 O.2   406  HIS406     -0.2864
    180  CB        51.8350   10.7210   11.6270 C.3   406  HIS406      0.0771
    181  CG        52.3870    9.3320   11.5080 C.ar  406  HIS406      0.0820
    182  ND1       53.6350    9.0010   11.9790 N.ar  406  HIS406     -0.2267
    183  CD2       51.8510    8.1830   11.0250 C.ar  406  HIS406      0.1154
    184  CE1       53.8620    7.7140   11.7750 C.ar  406  HIS406      0.1986
    185  NE2       52.7920    7.1900   11.2030 N.ar  406  HIS406     -0.2212
    186  N         54.0260   14.6310   14.5260 N.3   411  MET411     -0.1245
    187  CA        55.2490   15.0550   13.8710 C.3   411  MET411      0.1570
    188  C         55.9760   16.2160   14.5920 C.2   411  MET411      0.2261
    189  O         57.1130   16.4790   14.3250 O.2   411  MET411     -0.2867
    190  CB        55.0080   15.3840   12.3810 C.3   411  MET411      0.0387
    191  CG        54.4490   14.2620   11.5160 C.3   411  MET411      0.0595
    192  SD        55.2010   12.6430   11.9160 S.3   411  MET411     -0.1393
    193  CE        56.8130   12.8670   11.3100 C.3   411  MET411      0.0692
    194  N         60.1190   15.5520   14.8850 N.3   415  PHE415     -0.1241
    195  CA        60.9440   16.5620   14.2320 C.3   415  PHE415      0.1605
    196  C         61.6400   17.5270   15.1620 C.2   415  PHE415      0.2264
    197  O         62.6470   18.1230   14.7880 O.2   415  PHE415     -0.2867
    198  CB        60.1140   17.3400   13.2110 C.3   415  PHE415      0.0534
    199  CG        59.6800   16.5190   12.0040 C.ar  415  PHE415     -0.0203
    200  CD1       60.3690   15.3820   11.5990 C.ar  415  PHE415     -0.0042
    201  CD2       58.6090   16.9180   11.2590 C.ar  415  PHE415     -0.0042
    202  CE1       59.9480   14.6690   10.4560 C.ar  415  PHE415     -0.0003
    203  CE2       58.1890   16.2210   10.1500 C.ar  415  PHE415     -0.0003
    204  CZ        58.8670   15.0960    9.7530 C.ar  415  PHE415     -0.0000
@<TRIPOS>BOND
     1    51    50    2
     2    50    49    1
     3    55    53   am
     4    49    48    1
     5    49    52    1
     6    53    54    2
     7    53    52    1
     8    48    44   am
     9    44    45    2
    10    44    43    1
    11   133   132    2
    12   132   131    1
    13    42    43    1
    14    43    46    1
    15   134   131    1
    16   134   135    1
    17   131   130    1
    18   137   135   ar
    19   137   139   ar
    20   160   159    2
    21   135   136   ar
    22   144   143    2
    23   139   140   ar
    24   141   142    1
    25   159   158    1
    26    46    47    1
    27   136   138   ar
    28   143   142    1
    29   130   122   am
    30   140   138   ar
    31   123   122    2
    32   142   145    1
    33    15    17   ar
    34    15    14   ar
    35     4     3    2
    36    10    11    1
    37    10     9    1
    38    10    13    1
    39    11    12    2
    40   122   121    1
    41   158   161    1
    42   158   157    1
    43     1     2    1
    44    19    20    1
    45   145   146    1
    46    17    18   ar
    47   161   162    1
    48   171   169    1
    49   147   146    1
    50     3     9   am
    51     3     2    1
    52   129   128   ar
    53   129   127   ar
    54    13    14    1
    55    20    21    1
    56    20    23    1
    57    14    16   ar
    58   157   151   am
    59   128   126   ar
    60   127   125   ar
    61   165   166    1
    62     2     5    1
    63   146   148    1
    64    25    23    1
    65   166   169    1
    66   166   167    1
    67    21    22    2
    68   169   170    1
    69   149   150    1
    70    59    58    2
    71   151   152    2
    72   151   150    1
    73   121   124    1
    74   121   120    1
    75   126   125   ar
    76    18    16   ar
    77   125   124    1
    78   164   162    1
    79    23    24    1
    80    67    66    2
    81   162   163    1
    82    66    65    1
    83   150   153    1
    84   120   118   am
    85    41    39    1
    86   167   168    2
    87   167   172   am
    88     5     6    1
    89    65    64    1
    90    58    64   am
    91    58    57    1
    92   172   173    1
    93    39    40    1
    94    39    36    1
    95   155   154    2
    96    56    57    1
    97   118   119    2
    98   118   117    1
    99    90    88    1
   100    60    57    1
   101    60    61    1
   102   116   117    1
   103   153   154    1
   104    37    38    2
   105    37    36    1
   106     6     8    1
   107     6     7    1
   108   154   156   am
   109   173   174    1
   110    36    35    1
   111    61    62   ar
   112    61    63   ar
   113    35    28   am
   114    26    27    1
   115    33    32    2
   116    88    89    1
   117    88    85    1
   118   174   175    2
   119   174   176   am
   120    87    86    2
   121    28    27    1
   122    28    29    2
   123    86    85    1
   124    32    34   am
   125    32    31    1
   126    27    30    1
   127    83    81    1
   128    85    84    1
   129    30    31    1
   130   176   177    1
   131   204   203   ar
   132   204   202   ar
   133    81    82    1
   134    81    78    1
   135   179   178    2
   136   203   201   ar
   137    72    73    1
   138    72    69    1
   139   202   200   ar
   140    73    74    1
   141   177   178    1
   142   177   180    1
   143    77    78    1
   144    77    70   am
   145    68    69    1
   146    78    79    1
   147    80    79    2
   148   183   185   ar
   149   183   181   ar
   150   185   184   ar
   151   201   199   ar
   152    69    70    1
   153   193   192    1
   154    74    76   ar
   155    74    75   ar
   156   181   180    1
   157   181   182   ar
   158   191   192    1
   159   191   190    1
   160   200   199   ar
   161    70    71    2
   162   184   182   ar
   163   199   198    1
   164   190   187    1
   165   198   195    1
   166   106   105   ar
   167   107   105   ar
   168    99    98    1
   169   187   186    1
   170   187   188    1
   171   105   104    1
   172   195   194    1
   173   195   196    1
   174    98    97    1
   175   189   188    2
   176   114   113    2
   177   197   196    2
   178   111   110    2
   179   113   115   am
   180   113   112    1
   181   109   112    1
   182   109   108    1
   183   109   110    1
   184   103   102    2
   185   104   101    1
   186   102   108   am
   187   102   101    1
   188    97    96    1
   189   101   100    1
   190    96    95    1
   191    95    92    1
   192    94    93    2
   193    93    92    1
   194    92    91    1
