@<TRIPOS>MOLECULE
tmp/3di2A00.pdb
 84 79 0 0 0
SMALL
GASTEIGER

@<TRIPOS>ATOM
      1  N         15.5350   70.9260   61.5600 N.3     1  ASP1       -0.1225
      2  CA        15.7090   70.8230   60.0780 C.3     1  ASP1        0.1805
      3  C         17.0630   71.3650   59.6310 C.2     1  ASP1        0.2598
      4  O         17.3390   71.4440   58.4310 O.2     1  ASP1       -0.2718
      5  CB        14.5770   71.5670   59.3260 C.3     1  ASP1        0.1424
      6  CG        14.6090   73.0900   59.5270 C.2     1  ASP1        0.3668
      7  OD1       15.6990   73.6880   59.4230 O.co2   1  ASP1       -0.2456
      8  OD2       13.5330   73.6930   59.7640 O.co2   1  ASP1       -0.2456
      9  N         17.9020   71.7390   60.5960 N.am    2  GLY2       -0.1957
     10  CA        19.2140   72.2580   60.2590 C.3     2  GLY2        0.1869
     11  C         20.0140   71.1600   59.5950 C.2     2  GLY2        0.2309
     12  O         21.0840   71.3990   59.0380 O.2     2  GLY2       -0.2863
     13  N         16.9650   84.8450   61.1940 N.3    46  GLY46      -0.1210
     14  CA        16.0400   84.5260   60.1300 C.3    46  GLY46       0.1956
     15  C         15.8870   85.6800   59.1610 C.2    46  GLY46       0.2611
     16  O         15.9200   85.4780   57.9520 O.2    46  GLY46      -0.2717
     17  N         15.7200   86.8920   59.6890 N.am   47  MET47      -0.1979
     18  CA        15.5560   88.0620   58.8410 C.3    47  MET47       0.1605
     19  C         16.7420   88.2020   57.8970 C.2    47  MET47       0.2287
     20  O         16.5690   88.5860   56.7370 O.2    47  MET47      -0.2864
     21  CB        15.3960   89.3310   59.6960 C.3    47  MET47       0.0413
     22  CG        15.1300   90.5480   58.8680 C.3    47  MET47       0.0598
     23  SD        13.4150   90.4930   58.3430 S.3    47  MET47      -0.1393
     24  CE        12.7150   91.4320   59.6840 C.3    47  MET47       0.0692
     25  N         16.9630   85.3600   55.0250 N.3    50  PHE50      -0.1241
     26  CA        15.9130   85.6720   54.0880 C.3    50  PHE50       0.1605
     27  C         16.4200   86.7240   53.1050 C.2    50  PHE50       0.2264
     28  O         16.4270   86.4890   51.9020 O.2    50  PHE50      -0.2867
     29  CB        14.7020   86.1670   54.8650 C.3    50  PHE50       0.0534
     30  CG        13.6230   86.7380   54.0140 C.ar   50  PHE50      -0.0203
     31  CD1       13.5120   88.1240   53.8520 C.ar   50  PHE50      -0.0042
     32  CD2       12.7130   85.8990   53.3760 C.ar   50  PHE50      -0.0042
     33  CE1       12.5080   88.6690   53.0670 C.ar   50  PHE50      -0.0003
     34  CE2       11.7070   86.4270   52.5910 C.ar   50  PHE50      -0.0003
     35  CZ        11.6010   87.8210   52.4330 C.ar   50  PHE50      -0.0000
     36  N         13.2700   76.6140   53.8190 N.3    82  LEU82      -0.1231
     37  CA        13.4540   76.1570   55.1900 C.3    82  LEU82       0.1693
     38  C         12.9680   77.1480   56.2400 C.2    82  LEU82       0.2592
     39  O         12.8920   76.8180   57.4300 O.2    82  LEU82      -0.2718
     40  CB        14.9180   75.8030   55.4600 C.3    82  LEU82       0.0284
     41  CG        15.4580   74.4770   54.9150 C.3    82  LEU82       0.0019
     42  CD1       15.5440   74.5390   53.4220 C.3    82  LEU82       0.0001
     43  CD2       16.8340   74.2040   55.4810 C.3    82  LEU82       0.0001
     44  N         12.6060   78.3470   55.7980 N.am   83  LEU83      -0.1966
     45  CA        12.1500   79.3810   56.7170 C.3    83  LEU83       0.1728
     46  C         10.6400   79.7110   56.6340 C.2    83  LEU83       0.2616
     47  O          9.8680   79.3750   57.5410 O.2    83  LEU83      -0.2715
     48  CB        13.0010   80.6450   56.4890 C.3    83  LEU83       0.0311
     49  CG        14.5240   80.4480   56.3230 C.3    83  LEU83       0.0022
     50  CD1       15.1880   81.7460   55.8800 C.3    83  LEU83       0.0001
     51  CD2       15.1300   79.9560   57.6230 C.3    83  LEU83       0.0001
     52  N         10.2210   80.3800   55.5620 N.am   84  ASN84      -0.1972
     53  CA         8.8150   80.7530   55.4050 C.3    84  ASN84       0.1688
     54  C          8.4100   80.7680   53.9340 C.2    84  ASN84       0.2292
     55  O          8.7490   81.6910   53.1920 O.2    84  ASN84      -0.2864
     56  CB         8.5530   82.1380   56.0430 C.3    84  ASN84       0.1181
     57  CG         7.0980   82.5400   56.0290 C.2    84  ASN84       0.2629
     58  OD1        6.2360   81.8900   55.4190 O.2    84  ASN84      -0.2716
     59  ND2        6.8430   83.6860   56.6130 N.am   84  ASN84      -0.0877
     60  N         22.2290   79.8080   63.8870 N.3   108  ILE108     -0.1245
     61  CA        20.9300   79.1620   64.0230 C.3   108  ILE108      0.1561
     62  C         21.0870   77.7080   64.4810 C.2   108  ILE108      0.2260
     63  O         20.2700   77.1930   65.2460 O.2   108  ILE108     -0.2867
     64  CB        20.1900   79.1750   62.6930 C.3   108  ILE108      0.0252
     65  CG1       19.5830   80.5500   62.4740 C.3   108  ILE108      0.0019
     66  CG2       19.1450   78.0780   62.6620 C.3   108  ILE108      0.0019
     67  CD1       18.9730   80.7140   61.1210 C.3   108  ILE108      0.0001
     68  N         20.2600   76.0900   68.5670 N.3   112  THR112     -0.1218
     69  CA        19.0010   75.3880   68.8500 C.3   112  THR112      0.1862
     70  C         19.2850   74.3230   69.8940 C.2   112  THR112      0.2287
     71  O         18.3900   73.8900   70.6290 O.2   112  THR112     -0.2866
     72  CB        18.4010   74.6930   67.6100 C.3   112  THR112      0.1770
     73  OG1       19.4530   74.0830   66.8530 O.3   112  THR112     -0.2211
     74  CG2       17.6130   75.6870   66.7580 C.3   112  THR112      0.0375
     75  N         18.0310   76.5380   73.1570 N.3   115  HIS115     -0.1241
     76  CA        16.6390   76.7320   73.5630 C.3   115  HIS115      0.1621
     77  C         16.0870   75.4820   74.2500 C.2   115  HIS115      0.2264
     78  O         15.7180   75.5810   75.4480 O.2   115  HIS115     -0.2867
     79  CB        15.7730   77.0930   72.3460 C.3   115  HIS115      0.0745
     80  CG        15.7630   76.1420   71.1960 C.ar  115  HIS115      0.0817
     81  ND1       15.4990   74.7760   71.3020 N.ar  115  HIS115     -0.2268
     82  CD2       15.9530   76.4000   69.8700 C.ar  115  HIS115      0.1154
     83  CE1       15.5430   74.2090   70.1130 C.ar  115  HIS115      0.1986
     84  NE2       15.7980   75.1730   69.2430 N.ar  115  HIS115     -0.2212
@<TRIPOS>BOND
     1    28    27    2
     2    35    34   ar
     3    35    33   ar
     4    34    32   ar
     5    33    31   ar
     6    27    26    1
     7    55    54    2
     8    32    30   ar
     9    42    41    1
    10    36    37    1
    11    31    30   ar
    12    54    53    1
    13    30    29    1
    14    26    29    1
    15    26    25    1
    16    41    40    1
    17    41    43    1
    18    37    40    1
    19    37    38    1
    20    53    52    1
    21    53    56    1
    22    58    57    2
    23    52    46   am
    24    44    38   am
    25    44    45    1
    26    50    49    1
    27    57    56    1
    28    57    59   am
    29    38    39    2
    30    49    48    1
    31    49    51    1
    32    48    45    1
    33    46    45    1
    34    46    47    2
    35    20    19    2
    36    19    18    1
    37    16    15    2
    38    23    22    1
    39    23    24    1
    40     4     3    2
    41    18    17    1
    42    18    21    1
    43    22    21    1
    44    12    11    2
    45    15    17   am
    46    15    14    1
    47     5     6    1
    48     5     2    1
    49     7     6   ar
    50     6     8   ar
    51    11    10    1
    52     3     2    1
    53     3     9   am
    54     2     1    1
    55    14    13    1
    56    10     9    1
    57    67    65    1
    58    65    64    1
    59    66    64    1
    60    64    61    1
    61    60    61    1
    62    61    62    1
    63    62    63    2
    64    74    72    1
    65    73    72    1
    66    72    69    1
    67    68    69    1
    68    69    70    1
    69    84    82   ar
    70    84    83   ar
    71    82    80   ar
    72    70    71    2
    73    83    81   ar
    74    80    81   ar
    75    80    79    1
    76    79    76    1
    77    75    76    1
    78    76    77    1
    79    77    78    2
