@<TRIPOS>MOLECULE
tmp/3di6A00.pdb
 175 175 0 0 0
SMALL
GASTEIGER

@<TRIPOS>ATOM
      1  N         47.3560   54.9860   21.3730 N.3    91  PRO91      -0.2116
      2  CA        48.1960   55.0890   20.1770 C.3    91  PRO91       0.1372
      3  C         49.6690   55.1930   20.5080 C.2    91  PRO91       0.2244
      4  O         50.0330   55.7930   21.5210 O.2    91  PRO91      -0.2868
      5  CB        47.7210   56.3830   19.5080 C.3    91  PRO91       0.0268
      6  CG        46.4490   56.7560   20.2000 C.3    91  PRO91       0.0207
      7  CD        46.4800   56.1540   21.5450 C.3    91  PRO91       0.0892
      8  N         51.6330   57.3760   14.2560 N.3    96  LEU96      -0.1231
      9  CA        50.9720   58.6220   13.8430 C.3    96  LEU96       0.1693
     10  C         51.4880   59.1360   12.4960 C.2    96  LEU96       0.2592
     11  O         52.6930   59.1970   12.2660 O.2    96  LEU96      -0.2718
     12  CB        51.1450   59.7060   14.9150 C.3    96  LEU96       0.0284
     13  CG        50.5340   59.3790   16.2770 C.3    96  LEU96       0.0019
     14  CD1       50.9300   60.4080   17.3210 C.3    96  LEU96       0.0001
     15  CD2       49.0400   59.2990   16.1450 C.3    96  LEU96       0.0001
     16  N         50.5610   59.4940   11.6090 N.am   97  LYS97      -0.1966
     17  CA        50.9090   60.1700   10.3620 C.3    97  LYS97       0.1728
     18  C         51.2140   61.6370   10.6700 C.2    97  LYS97       0.2616
     19  O         50.5200   62.2600   11.4760 O.2    97  LYS97      -0.2715
     20  CB        49.7670   60.0560    9.3590 C.3    97  LYS97       0.0311
     21  CG        50.1330   60.4920    7.9580 C.3    97  LYS97       0.0038
     22  CD        48.9730   60.2420    6.9820 C.3    97  LYS97       0.0206
     23  CE        49.3910   60.4480    5.5330 C.3    97  LYS97       0.1093
     24  NZ        50.1390   61.7200    5.3620 N.3    97  LYS97      -0.1314
     25  N         52.2570   62.1830   10.0520 N.am   98  LYS98      -0.1963
     26  CA        52.6520   63.5690   10.3090 C.3    98  LYS98       0.1728
     27  C         51.5930   64.5420    9.7780 C.2    98  LYS98       0.2616
     28  O         51.1990   64.4620    8.6080 O.2    98  LYS98      -0.2715
     29  CB        54.0100   63.8920    9.6690 C.3    98  LYS98       0.0311
     30  CG        54.8130   64.9470   10.4390 C.3    98  LYS98       0.0038
     31  CD        55.5590   65.9220    9.5310 C.3    98  LYS98       0.0206
     32  CE        56.5600   65.2270    8.6170 C.3    98  LYS98       0.1093
     33  NZ        57.3220   66.2120    7.7940 N.3    98  LYS98      -0.1314
     34  N         51.1150   65.4310   10.6510 N.am   99  LYS99      -0.1963
     35  CA        50.2150   66.5120   10.2420 C.3    99  LYS99       0.1728
     36  C         50.9660   67.8420   10.2160 C.2    99  LYS99       0.2616
     37  O         51.8830   68.0660   11.0160 O.2    99  LYS99      -0.2715
     38  CB        49.0170   66.6210   11.1910 C.3    99  LYS99       0.0311
     39  CG        48.0490   65.4380   11.1770 C.3    99  LYS99       0.0038
     40  CD        47.7660   64.8940    9.7680 C.3    99  LYS99       0.0206
     41  CE        46.5020   64.0220    9.7320 C.3    99  LYS99       0.1093
     42  NZ        46.6180   62.8540    8.8020 N.3    99  LYS99      -0.1314
     43  N         50.5700   68.7220    9.3000 N.am  100  LYS100     -0.1963
     44  CA        51.1410   70.0730    9.2270 C.3   100  LYS100      0.1728
     45  C         50.8570   70.8630   10.5100 C.2   100  LYS100      0.2617
     46  O         51.7220   71.5750   11.0080 O.2   100  LYS100     -0.2715
     47  CB        50.5960   70.8240    8.0020 C.3   100  LYS100      0.0311
     48  CG        51.2790   72.1540    7.7300 C.3   100  LYS100      0.0038
     49  CD        50.9700   72.7090    6.3170 C.3   100  LYS100      0.0206
     50  CE        51.7860   72.0350    5.1870 C.3   100  LYS100      0.1093
     51  NZ        50.9880   71.0330    4.4130 N.3   100  LYS100     -0.1314
     52  N         49.6490   70.7220   11.0460 N.am  101  SER101     -0.1936
     53  CA        49.2780   71.3880   12.2940 C.3   101  SER101      0.2055
     54  C         48.5240   70.4380   13.2160 C.2   101  SER101      0.2642
     55  O         47.7380   69.6130   12.7540 O.2   101  SER101     -0.2714
     56  CB        48.4050   72.6200   12.0170 C.3   101  SER101      0.2130
     57  OG        49.1270   73.6450   11.3610 O.3   101  SER101     -0.2179
     58  N         48.7730   70.5780   14.5150 N.am  102  VAL102     -0.1977
     59  CA        48.0820   69.8200   15.5540 C.3   102  VAL102      0.1596
     60  C         47.7600   70.7370   16.7410 C.2   102  VAL102      0.2287
     61  O         48.6490   71.4080   17.2680 O.2   102  VAL102     -0.2864
     62  CB        48.9440   68.6340   16.0740 C.3   102  VAL102      0.0276
     63  CG1       48.2290   67.9200   17.2210 C.3   102  VAL102      0.0022
     64  CG2       49.2640   67.6550   14.9470 C.3   102  VAL102      0.0022
     65  N         42.3590   64.4770   11.6180 N.3   175  VAL175     -0.1245
     66  CA        42.5070   63.3950   12.5770 C.3   175  VAL175      0.1561
     67  C         42.2790   63.9330   13.9830 C.2   175  VAL175      0.2260
     68  O         42.9300   64.8910   14.4190 O.2   175  VAL175     -0.2867
     69  CB        43.9040   62.7360   12.4920 C.3   175  VAL175      0.0252
     70  CG1       44.1030   61.7280   13.6340 C.3   175  VAL175      0.0019
     71  CG2       44.0880   62.0610   11.1450 C.3   175  VAL175      0.0019
     72  N         42.1310   62.6020   17.9050 N.3   177  TYR177     -0.1241
     73  CA        42.3250   61.5580   18.8990 C.3   177  TYR177      0.1605
     74  C         41.7570   61.9980   20.2460 C.2   177  TYR177      0.2264
     75  O         42.1060   63.0600   20.7560 O.2   177  TYR177     -0.2867
     76  CB        43.8070   61.1890   19.0280 C.3   177  TYR177      0.0534
     77  CG        44.0670   60.2650   20.1930 C.ar  177  TYR177     -0.0201
     78  CD1       43.4840   58.9880   20.2410 C.ar  177  TYR177     -0.0009
     79  CD2       44.8520   60.6720   21.2660 C.ar  177  TYR177     -0.0009
     80  CE1       43.6900   58.1420   21.3150 C.ar  177  TYR177      0.0417
     81  CE2       45.0730   59.8230   22.3430 C.ar  177  TYR177      0.0417
     82  CZ        44.4880   58.5600   22.3630 C.ar  177  TYR177      0.1957
     83  OH        44.7100   57.7300   23.4360 O.3   177  TYR177     -0.2866
     84  N         42.9890   65.8060   20.5470 N.3   184  TYR184     -0.1227
     85  CA        44.1570   66.1880   19.7650 C.3   184  TYR184      0.1736
     86  C         43.7380   66.2360   18.3130 C.2   184  TYR184      0.2595
     87  O         43.3780   65.2130   17.7350 O.2   184  TYR184     -0.2718
     88  CB        45.2930   65.1890   19.9610 C.3   184  TYR184      0.0548
     89  CG        45.8980   65.2400   21.3350 C.ar  184  TYR184     -0.0200
     90  CD1       45.3560   64.5050   22.3790 C.ar  184  TYR184     -0.0009
     91  CD2       47.0090   66.0370   21.6010 C.ar  184  TYR184     -0.0009
     92  CE1       45.9050   64.5480   23.6500 C.ar  184  TYR184      0.0417
     93  CE2       47.5680   66.0940   22.8800 C.ar  184  TYR184      0.0417
     94  CZ        47.0070   65.3450   23.8970 C.ar  184  TYR184      0.1957
     95  OH        47.5490   65.3790   25.1640 O.3   184  TYR184     -0.2866
     96  N         43.7630   67.4290   17.7310 N.am  185  VAL185     -0.1966
     97  CA        43.2170   67.6380   16.3950 C.3   185  VAL185      0.1727
     98  C         44.3410   68.0170   15.4410 C.2   185  VAL185      0.2616
     99  O         45.0460   69.0040   15.6640 O.2   185  VAL185     -0.2715
    100  CB        42.1410   68.7440   16.4000 C.3   185  VAL185      0.0290
    101  CG1       41.4730   68.8380   15.0400 C.3   185  VAL185      0.0023
    102  CG2       41.1150   68.4770   17.4960 C.3   185  VAL185      0.0023
    103  N         44.5090   67.2190   14.3900 N.am  186  GLY186     -0.1955
    104  CA        45.5730   67.4290   13.4170 C.3   186  GLY186      0.1869
    105  C         45.0500   67.5030   11.9990 C.2   186  GLY186      0.2309
    106  O         44.0790   66.8230   11.6490 O.2   186  GLY186     -0.2863
    107  N         52.7760   72.7310   20.4350 N.3   221  PRO221     -0.2116
    108  CA        53.7470   71.6380   20.2460 C.3   221  PRO221      0.1372
    109  C         55.1740   72.1230   20.4990 C.2   221  PRO221      0.2244
    110  O         55.5320   73.2000   20.0280 O.2   221  PRO221     -0.2868
    111  CB        53.5840   71.2500   18.7700 C.3   221  PRO221      0.0268
    112  CG        52.2890   71.8220   18.3310 C.3   221  PRO221      0.0207
    113  CD        51.9560   72.9700   19.2330 C.3   221  PRO221      0.0892
    114  N         53.9820   68.6490   22.5250 N.3   223  PHE223     -0.1241
    115  CA        53.0580   68.1770   23.5510 C.3   223  PHE223      0.1605
    116  C         53.7030   67.0900   24.3740 C.2   223  PHE223      0.2264
    117  O         54.1950   66.0980   23.8350 O.2   223  PHE223     -0.2867
    118  CB        51.7940   67.5790   22.9400 C.3   223  PHE223      0.0534
    119  CG        51.1350   68.4690   21.9690 C.ar  223  PHE223     -0.0203
    120  CD1       50.6790   69.7150   22.3710 C.ar  223  PHE223     -0.0042
    121  CD2       50.9870   68.0860   20.6480 C.ar  223  PHE223     -0.0042
    122  CE1       50.0740   70.5710   21.4690 C.ar  223  PHE223     -0.0003
    123  CE2       50.3840   68.9280   19.7400 C.ar  223  PHE223     -0.0003
    124  CZ        49.9200   70.1780   20.1520 C.ar  223  PHE223     -0.0000
    125  N         52.7150   64.1000   26.2830 N.3   225  TRP225     -0.1241
    126  CA        51.5430   63.2300   26.3620 C.3   225  TRP225      0.1605
    127  C         51.9360   61.8120   26.7090 C.2   225  TRP225      0.2264
    128  O         52.6260   61.1540   25.9380 O.2   225  TRP225     -0.2867
    129  CB        50.7740   63.1980   25.0400 C.3   225  TRP225      0.0550
    130  CG        49.6920   62.1500   25.0410 C.ar  225  TRP225      0.0003
    131  CD1       48.4920   62.2190   25.6800 C.ar  225  TRP225      0.0946
    132  CD2       49.7280   60.8710   24.3980 C.ar  225  TRP225      0.0152
    133  NE1       47.7730   61.0690   25.4730 N.ar  225  TRP225     -0.2442
    134  CE2       48.5060   60.2240   24.6880 C.ar  225  TRP225      0.0810
    135  CE3       50.6720   60.2070   23.6100 C.ar  225  TRP225      0.0012
    136  CZ2       48.2010   58.9480   24.2130 C.ar  225  TRP225      0.0191
    137  CZ3       50.3660   58.9310   23.1340 C.ar  225  TRP225      0.0001
    138  CH2       49.1390   58.3190   23.4390 C.ar  225  TRP225      0.0015
    139  N         55.8710   65.1070   21.6700 N.3   230  LEU230     -0.1231
    140  CA        55.4190   65.0570   20.2830 C.3   230  LEU230      0.1693
    141  C         55.7350   66.3520   19.5400 C.2   230  LEU230      0.2592
    142  O         54.9630   67.3080   19.6070 O.2   230  LEU230     -0.2718
    143  CB        53.9150   64.7780   20.2540 C.3   230  LEU230      0.0284
    144  CG        53.5190   63.4020   20.7930 C.3   230  LEU230      0.0019
    145  CD1       52.0390   63.3580   21.1730 C.3   230  LEU230      0.0001
    146  CD2       53.8600   62.3280   19.7710 C.3   230  LEU230      0.0001
    147  N         56.8630   66.3670   18.8280 N.am  231  HIS231     -0.1962
    148  CA        57.3350   67.5480   18.0810 C.3   231  HIS231      0.1772
    149  C         56.7680   67.5810   16.6550 C.2   231  HIS231      0.2462
    150  O         56.2290   66.5830   16.1900 O.2   231  HIS231     -0.2730
    151  CB        58.8640   67.5500   18.0250 C.3   231  HIS231      0.0785
    152  CG        59.5180   67.6960   19.3600 C.ar  231  HIS231      0.0821
    153  ND1       59.5050   66.6960   20.3060 N.ar  231  HIS231     -0.2267
    154  CD2       60.2170   68.7190   19.9040 C.ar  231  HIS231      0.1154
    155  CE1       60.1620   67.0990   21.3790 C.ar  231  HIS231      0.1986
    156  NE2       60.6060   68.3220   21.1590 N.ar  231  HIS231     -0.2212
    157  N         56.8750   68.7380   15.9620 N.am  232  PRO232     -0.2727
    158  CA        56.3060   68.9090   14.6100 C.3   232  PRO232      0.1402
    159  C         56.6050   67.8120   13.5820 C.2   232  PRO232      0.2269
    160  O         55.7250   67.4860   12.7830 O.2   232  PRO232     -0.2865
    161  CB        56.9000   70.2430   14.1470 C.3   232  PRO232      0.0296
    162  CG        57.0940   70.9980   15.3920 C.3   232  PRO232      0.0237
    163  CD        57.4920   69.9940   16.4350 C.3   232  PRO232      0.0939
    164  N         57.6760   60.0280   12.4220 N.3   314  TYR314     -0.1241
    165  CA        56.2740   59.6810   12.2760 C.3   314  TYR314      0.1605
    166  C         56.1050   58.7850   11.0610 C.2   314  TYR314      0.2264
    167  O         57.0440   58.5780   10.2970 O.2   314  TYR314     -0.2867
    168  CB        55.4180   60.9480   12.1450 C.3   314  TYR314      0.0534
    169  CG        55.3890   61.7970   13.3970 C.ar  314  TYR314     -0.0201
    170  CD1       55.9080   63.0820   13.3990 C.ar  314  TYR314     -0.0009
    171  CD2       54.8450   61.3130   14.5790 C.ar  314  TYR314     -0.0009
    172  CE1       55.8860   63.8620   14.5420 C.ar  314  TYR314      0.0417
    173  CE2       54.8200   62.0870   15.7330 C.ar  314  TYR314      0.0417
    174  CZ        55.3380   63.3630   15.7060 C.ar  314  TYR314      0.1957
    175  OH        55.3230   64.1390   16.8440 O.3   314  TYR314     -0.2866
@<TRIPOS>BOND
     1    51    50    1
     2    50    49    1
     3    24    23    1
     4    23    22    1
     5    49    48    1
     6    22    21    1
     7    48    47    1
     8    33    32    1
     9    21    20    1
    10    47    44    1
    11    28    27    2
    12    32    31    1
    13    42    41    1
    14    44    43    1
    15    44    45    1
    16    43    36   am
    17    20    17    1
    18    31    30    1
    19    29    26    1
    20    29    30    1
    21    41    40    1
    22    40    39    1
    23    27    26    1
    24    27    34   am
    25    25    26    1
    26    25    18   am
    27    36    35    1
    28    36    37    2
    29    35    34    1
    30    35    38    1
    31   167   166    2
    32    17    18    1
    33    17    16    1
    34    45    46    2
    35    45    52   am
    36    18    19    2
    37    52    53    1
    38   166   165    1
    39    71    69    1
    40    39    38    1
    41    57    56    1
    42    16    10   am
    43    65    66    1
    44   106   105    2
    45   105   104    1
    46    56    53    1
    47   168   165    1
    48   168   169    1
    49    11    10    2
    50   165   164    1
    51    53    54    1
    52    69    66    1
    53    69    70    1
    54    10     9    1
    55    66    67    1
    56    55    54    2
    57   160   159    2
    58    54    58   am
    59   169   170   ar
    60   169   171   ar
    61   170   172   ar
    62   104   103    1
    63   159   158    1
    64     9     8    1
    65     9    12    1
    66    67    68    2
    67   161   158    1
    68   161   162    1
    69   103    98   am
    70    58    59    1
    71   172   174   ar
    72   171   173   ar
    73   158   157    1
    74    12    13    1
    75    64    62    1
    76   101   100    1
    77   162   163    1
    78    98    99    2
    79    98    97    1
    80    59    62    1
    81    59    60    1
    82   174   173   ar
    83   174   175    1
    84   157   163    1
    85   157   149   am
    86    62    63    1
    87    15    13    1
    88   150   149    2
    89    13    14    1
    90    97   100    1
    91    97    96    1
    92   100   102    1
    93   149   148    1
    94    60    61    2
    95    96    86   am
    96    87    86    2
    97    72    73    1
    98   151   148    1
    99   151   152    1
   100   148   147    1
   101    86    85    1
   102   112   111    1
   103   112   113    1
   104   111   108    1
   105   147   141   am
   106    73    76    1
   107    73    74    1
   108    76    77    1
   109   113   107    1
   110   152   154   ar
   111   152   153   ar
   112     5     2    1
   113     5     6    1
   114   141   142    2
   115   141   140    1
   116   123   124   ar
   117   123   121   ar
   118    85    88    1
   119    85    84    1
   120   146   144    1
   121   154   156   ar
   122    88    89    1
   123   110   109    2
   124   124   122   ar
   125     2     3    1
   126     2     1    1
   127    77    78   ar
   128    77    79   ar
   129     6     7    1
   130    78    80   ar
   131    74    75    2
   132   108   107    1
   133   108   109    1
   134   143   140    1
   135   143   144    1
   136   140   139    1
   137   153   155   ar
   138     3     4    2
   139   121   119   ar
   140   144   145    1
   141   156   155   ar
   142    79    81   ar
   143    80    82   ar
   144    89    91   ar
   145    89    90   ar
   146     1     7    1
   147   122   120   ar
   148    91    93   ar
   149   119   120   ar
   150   119   118    1
   151    81    82   ar
   152    82    83    1
   153    90    92   ar
   154   114   115    1
   155    93    94   ar
   156   118   115    1
   157   137   138   ar
   158   137   135   ar
   159   138   136   ar
   160   115   116    1
   161   135   132   ar
   162    92    94   ar
   163   117   116    2
   164    94    95    1
   165   136   134   ar
   166   132   134   ar
   167   132   130   ar
   168   134   133   ar
   169   129   130    1
   170   129   126    1
   171   130   131   ar
   172   133   131   ar
   173   128   127    2
   174   125   126    1
   175   126   127    1
