@<TRIPOS>MOLECULE
tmp/3dinE00.pdb
 208 202 0 0 0
SMALL
GASTEIGER

@<TRIPOS>ATOM
      1  N         21.6730   31.8490   36.4140 N.3    74  MET74      -0.1230
      2  CA        21.8810   31.1320   35.1650 C.3    74  MET74       0.1702
      3  C         20.6460   31.1780   34.2710 C.2    74  MET74       0.2592
      4  O         19.8240   30.2580   34.2630 O.2    74  MET74      -0.2718
      5  CB        22.2820   29.6850   35.4600 C.3    74  MET74       0.0401
      6  CG        23.1760   29.5260   36.6800 C.3    74  MET74       0.0596
      7  SD        24.5960   28.4240   36.4380 S.3    74  MET74      -0.1393
      8  CE        25.9920   29.5570   36.5190 C.3    74  MET74       0.0692
      9  N         20.5310   32.2650   33.5150 N.am   75  ARG75      -0.1966
     10  CA        19.4100   32.4630   32.6130 C.3    75  ARG75       0.1714
     11  C         19.4570   33.7410   31.7720 C.2    75  ARG75       0.2458
     12  O         18.4220   34.2050   31.3070 O.2    75  ARG75      -0.2730
     13  CB        18.0980   32.4200   33.4020 C.3    75  ARG75       0.0347
     14  CG        18.1600   33.0510   34.7930 C.3    75  ARG75       0.0492
     15  CD        18.7620   34.4510   34.7680 C.3    75  ARG75       0.2205
     16  NE        20.2210   34.4350   34.8560 N.pl3  75  ARG75      -0.0865
     17  CZ        20.9050   34.6280   35.9810 C.cat  75  ARG75       0.5346
     18  NH1       20.2590   34.8550   37.1170 N.pl3  75  ARG75       0.1354
     19  NH2       22.2330   34.6080   35.9720 N.pl3  75  ARG75       0.1354
     20  N         20.6510   34.3340   31.5680 N.am   76  PRO76      -0.2716
     21  CA        20.6530   35.5590   30.7600 C.3    76  PRO76       0.1536
     22  C         21.1000   35.4550   29.2910 C.2    76  PRO76       0.2598
     23  O         20.9520   36.4140   28.5320 O.2    76  PRO76      -0.2715
     24  CB        21.5640   36.4710   31.5590 C.3    76  PRO76       0.0310
     25  CG        22.6400   35.5280   31.9730 C.3    76  PRO76       0.0237
     26  CD        21.8910   34.2520   32.3650 C.3    76  PRO76       0.0939
     27  N         21.6220   34.2990   28.8860 N.am   77  PHE77      -0.1974
     28  CA        22.0580   34.0940   27.5010 C.3    77  PHE77       0.1639
     29  C         20.8700   33.8710   26.5560 C.2    77  PHE77       0.2290
     30  O         19.7470   33.6940   27.0220 O.2    77  PHE77      -0.2864
     31  CB        23.0490   32.9290   27.4380 C.3    77  PHE77       0.0560
     32  CG        24.3700   33.2230   28.1010 C.ar   77  PHE77      -0.0200
     33  CD1       24.6350   34.4880   28.6320 C.ar   77  PHE77      -0.0042
     34  CD2       25.3460   32.2350   28.2000 C.ar   77  PHE77      -0.0042
     35  CE1       25.8570   34.7700   29.2360 C.ar   77  PHE77      -0.0003
     36  CE2       26.5750   32.5040   28.8040 C.ar   77  PHE77      -0.0003
     37  CZ        26.8280   33.7740   29.3270 C.ar   77  PHE77      -0.0000
     38  N         19.5440   29.6740   24.2250 N.3    80  GLN80      -0.1245
     39  CA        18.7660   28.9600   25.2270 C.3    80  GLN80       0.1566
     40  C         17.3750   29.5860   25.1530 C.2    80  GLN80       0.2260
     41  O         16.3710   28.8800   25.0870 O.2    80  GLN80      -0.2867
     42  CB        19.3680   29.2140   26.6140 C.3    80  GLN80       0.0367
     43  CG        19.6090   30.6980   26.9160 C.3    80  GLN80       0.0905
     44  CD        19.2560   31.0910   28.3400 C.2    80  GLN80       0.2608
     45  OE1       19.7490   32.0890   28.8660 O.2    80  GLN80      -0.2717
     46  NE2       18.4010   30.2960   28.9750 N.am   80  GLN80      -0.0878
     47  N         26.9110   24.2760   22.9490 N.3    96  LYS96      -0.1231
     48  CA        27.6880   24.3000   24.2240 C.3    96  LYS96       0.1693
     49  C         28.3760   25.5600   24.7970 C.2    96  LYS96       0.2593
     50  O         28.6370   26.5320   24.0870 O.2    96  LYS96      -0.2718
     51  CB        28.7130   23.1580   24.2220 C.3    96  LYS96       0.0285
     52  CG        30.1720   23.5660   24.0830 C.3    96  LYS96       0.0035
     53  CD        30.9630   22.5010   23.3260 C.3    96  LYS96       0.0206
     54  CE        30.6640   21.0850   23.8310 C.3    96  LYS96       0.1093
     55  NZ        30.6310   20.9910   25.3170 N.3    96  LYS96      -0.1314
     56  N         28.6670   25.5020   26.1010 N.am   97  THR97      -0.1939
     57  CA        29.3100   26.5770   26.8730 C.3    97  THR97       0.2028
     58  C         28.3360   27.7220   27.0750 C.2    97  THR97       0.2643
     59  O         27.8280   28.2930   26.1130 O.2    97  THR97      -0.2714
     60  CB        30.5820   27.1170   26.1800 C.3    97  THR97       0.1808
     61  OG1       31.3110   26.0250   25.6110 O.3    97  THR97      -0.2208
     62  CG2       31.4810   27.8320   27.1810 C.3    97  THR97       0.0379
     63  N         28.0910   28.0750   28.3300 N.am   98  GLY98      -0.1939
     64  CA        27.1410   29.1320   28.5910 C.3    98  GLY98       0.2014
     65  C         25.8390   28.5980   28.0440 C.2    98  GLY98       0.2639
     66  O         25.2640   27.6680   28.5830 O.2    98  GLY98      -0.2714
     67  N         25.3900   29.1710   26.9430 N.am   99  GLU99      -0.1963
     68  CA        24.1580   28.7350   26.3110 C.3    99  GLU99       0.1733
     69  C         23.0580   28.5590   27.3590 C.2    99  GLU99       0.2617
     70  O         22.3260   29.4970   27.6690 O.2    99  GLU99      -0.2715
     71  CB        24.3770   27.4100   25.5650 C.3    99  GLU99       0.0429
     72  CG        25.3420   27.4610   24.3800 C.3    99  GLU99       0.1163
     73  CD        25.0750   26.3920   23.3430 C.2    99  GLU99       0.3649
     74  OE1       25.2680   26.6640   22.1420 O.co2  99  GLU99      -0.2457
     75  OE2       24.6670   25.2770   23.7300 O.co2  99  GLU99      -0.2457
     76  N         22.9310   27.3500   27.8990 N.am  100  GLY100     -0.1940
     77  CA        21.9260   27.1200   28.9190 C.3   100  GLY100      0.2014
     78  C         21.1760   25.7920   28.8620 C.2   100  GLY100      0.2639
     79  O         20.2370   25.6330   29.6260 O.2   100  GLY100     -0.2714
     80  N         21.5590   24.8460   27.9950 N.am  101  LYS101     -0.1963
     81  CA        20.8550   23.5490   27.8750 C.3   101  LYS101      0.1728
     82  C         20.1120   23.1070   29.1180 C.2   101  LYS101      0.2617
     83  O         19.0410   22.5240   29.0220 O.2   101  LYS101     -0.2715
     84  CB        21.7960   22.4020   27.4700 C.3   101  LYS101      0.0311
     85  CG        22.0320   22.2940   25.9640 C.3   101  LYS101      0.0038
     86  CD        21.8960   20.8730   25.4400 C.3   101  LYS101      0.0206
     87  CE        23.2480   20.2010   25.2050 C.3   101  LYS101      0.1093
     88  NZ        24.3910   21.1490   25.1200 N.3   101  LYS101     -0.1314
     89  N         20.6980   23.3380   30.2860 N.am  102  THR102     -0.1937
     90  CA        20.0410   22.9900   31.5430 C.3   102  THR102      0.2028
     91  C         18.7870   23.8810   31.6220 C.2   102  THR102      0.2642
     92  O         17.6510   23.4200   31.4340 O.2   102  THR102     -0.2714
     93  CB        20.9880   23.2620   32.7440 C.3   102  THR102      0.1808
     94  OG1       21.5560   24.5680   32.6240 O.3   102  THR102     -0.2208
     95  CG2       22.1100   22.2460   32.7750 C.3   102  THR102      0.0379
     96  N         19.0090   25.1660   31.8850 N.am  103  LEU103     -0.1977
     97  CA        17.9270   26.1470   31.9630 C.3   103  LEU103      0.1596
     98  C         17.0760   26.1800   30.6870 C.2   103  LEU103      0.2287
     99  O         15.8610   26.0080   30.7380 O.2   103  LEU103     -0.2864
    100  CB        18.4970   27.5470   32.2350 C.3   103  LEU103      0.0297
    101  CG        19.8980   27.8840   31.7050 C.3   103  LEU103      0.0022
    102  CD1       20.0150   29.3790   31.4810 C.3   103  LEU103      0.0001
    103  CD2       20.9540   27.4080   32.6970 C.3   103  LEU103      0.0001
    104  N         20.7590   14.7150   36.8290 N.3   131  ARG131     -0.1245
    105  CA        21.3450   16.0300   36.5850 C.3   131  ARG131      0.1563
    106  C         20.2680   17.0860   36.3820 C.2   131  ARG131      0.2260
    107  O         19.8130   17.7250   37.3310 O.2   131  ARG131     -0.2867
    108  CB        22.2330   16.0070   35.3390 C.3   131  ARG131      0.0307
    109  CG        22.8450   17.3620   35.0110 C.3   131  ARG131      0.0489
    110  CD        23.4200   17.4120   33.5960 C.3   131  ARG131      0.2205
    111  NE        22.4670   17.9560   32.6330 N.pl3 131  ARG131     -0.0865
    112  CZ        22.7520   18.1720   31.3530 C.cat 131  ARG131      0.5346
    113  NH1       23.9590   17.8860   30.8840 N.pl3 131  ARG131      0.1354
    114  NH2       21.8370   18.6810   30.5400 N.pl3 131  ARG131      0.1354
    115  N         19.0260   20.2530   38.7270 N.3   135  TRP135     -0.1241
    116  CA        19.6180   21.5220   38.3300 C.3   135  TRP135      0.1605
    117  C         18.5720   22.5970   38.0300 C.2   135  TRP135      0.2264
    118  O         18.8690   23.7880   38.1110 O.2   135  TRP135     -0.2867
    119  CB        20.5370   21.3240   37.1250 C.3   135  TRP135      0.0550
    120  CG        21.2800   22.5670   36.7540 C.ar  135  TRP135      0.0003
    121  CD1       20.8600   23.5560   35.9110 C.ar  135  TRP135      0.0946
    122  CD2       22.5500   22.9840   37.2630 C.ar  135  TRP135      0.0152
    123  NE1       21.7910   24.5650   35.8660 N.ar  135  TRP135     -0.2442
    124  CE2       22.8390   24.2400   36.6860 C.ar  135  TRP135      0.0810
    125  CE3       23.4730   22.4190   38.1520 C.ar  135  TRP135      0.0012
    126  CZ2       24.0170   24.9430   36.9700 C.ar  135  TRP135      0.0191
    127  CZ3       24.6430   23.1150   38.4360 C.ar  135  TRP135      0.0001
    128  CH2       24.9030   24.3650   37.8450 C.ar  135  TRP135      0.0015
    129  N         26.0400   37.0880   37.0760 N.3   187  LEU187     -0.1245
    130  CA        25.5380   36.3550   38.2240 C.3   187  LEU187      0.1561
    131  C         26.6810   35.8620   39.0860 C.2   187  LEU187      0.2260
    132  O         27.2720   34.8080   38.8350 O.2   187  LEU187     -0.2867
    133  CB        24.6780   35.1800   37.7780 C.3   187  LEU187      0.0270
    134  CG        25.2720   34.1190   36.8660 C.3   187  LEU187      0.0019
    135  CD1       24.5440   32.7860   36.9850 C.3   187  LEU187      0.0001
    136  CD2       25.1740   34.6770   35.4680 C.3   187  LEU187      0.0001
    137  N         21.5400   16.5290   24.2790 N.3   253  GLU253     -0.1245
    138  CA        22.7280   16.0310   23.5870 C.3   253  GLU253      0.1567
    139  C         22.2560   15.0640   22.4990 C.2   253  GLU253      0.2260
    140  O         22.6440   13.9000   22.4630 O.2   253  GLU253     -0.2867
    141  CB        23.6740   15.3170   24.5630 C.3   253  GLU253      0.0388
    142  CG        25.1530   15.6250   24.3510 C.3   253  GLU253      0.1160
    143  CD        25.6800   16.6570   25.3310 C.2   253  GLU253      0.3649
    144  OE1       26.8890   16.9590   25.3030 O.co2 253  GLU253     -0.2457
    145  OE2       24.8820   17.1740   26.1360 O.co2 253  GLU253     -0.2457
    146  N         28.1730   17.8330   30.1670 N.3   536  THR536     -0.1203
    147  CA        28.1360   17.9030   31.6200 C.3   536  THR536      0.1994
    148  C         28.3510   19.3450   32.0650 C.2   536  THR536      0.2618
    149  O         29.2200   20.0380   31.5470 O.2   536  THR536     -0.2717
    150  CB        29.2390   17.0260   32.2560 C.3   536  THR536      0.1784
    151  OG1       29.0290   15.6550   31.8960 O.3   536  THR536     -0.2211
    152  CG2       29.2110   17.1520   33.7750 C.3   536  THR536      0.0376
    153  N         27.5530   19.7920   33.0270 N.am  537  ASP537     -0.1959
    154  CA        27.6600   21.1510   33.5440 C.3   537  ASP537      0.1840
    155  C         28.9020   21.3370   34.4120 C.2   537  ASP537      0.2622
    156  O         28.8480   21.9830   35.4600 O.2   537  ASP537     -0.2715
    157  CB        26.4070   21.4970   34.3510 C.3   537  ASP537      0.1450
    158  CG        26.2060   20.5740   35.5420 C.2   537  ASP537      0.3671
    159  OD1       25.2940   20.8460   36.3510 O.co2 537  ASP537     -0.2456
    160  OD2       26.9510   19.5780   35.6730 O.co2 537  ASP537     -0.2456
    161  N         30.0230   20.7720   33.9710 N.am  538  ILE538     -0.1963
    162  CA        31.2690   20.8830   34.7180 C.3   538  ILE538      0.1727
    163  C         31.5720   22.3510   34.9870 C.2   538  ILE538      0.2616
    164  O         31.0150   23.2360   34.3390 O.2   538  ILE538     -0.2715
    165  CB        32.4670   20.2820   33.9380 C.3   538  ILE538      0.0290
    166  CG1       32.0930   18.9190   33.3540 C.3   538  ILE538      0.0022
    167  CG2       33.6620   20.1140   34.8650 C.3   538  ILE538      0.0023
    168  CD1       31.9860   18.9040   31.8420 C.3   538  ILE538      0.0001
    169  N         32.4530   22.6030   35.9490 N.am  539  LYS539     -0.1977
    170  CA        32.8450   23.9600   36.3020 C.3   539  LYS539      0.1596
    171  C         34.3040   24.0270   36.7180 C.2   539  LYS539      0.2287
    172  O         35.1680   23.4070   36.0990 O.2   539  LYS539     -0.2864
    173  CB        31.9770   24.4990   37.4400 C.3   539  LYS539      0.0298
    174  CG        30.5110   24.6160   37.0980 C.3   539  LYS539      0.0038
    175  CD        29.7570   25.3380   38.1920 C.3   539  LYS539      0.0206
    176  CE        28.2640   25.2560   37.9600 C.3   539  LYS539      0.1093
    177  NZ        27.5230   26.0370   38.9840 N.3   539  LYS539     -0.1314
    178  N         33.8880   19.0680   26.4800 N.3   570  ARG570     -0.1245
    179  CA        33.6670   18.9540   27.9160 C.3   570  ARG570      0.1563
    180  C         34.5350   19.9520   28.6690 C.2   570  ARG570      0.2260
    181  O         34.6350   19.9090   29.8970 O.2   570  ARG570     -0.2867
    182  CB        33.9900   17.5360   28.3870 C.3   570  ARG570      0.0307
    183  CG        32.8350   16.5520   28.2950 C.3   570  ARG570      0.0489
    184  CD        32.0290   16.7160   27.0090 C.3   570  ARG570      0.2205
    185  NE        30.9980   17.7400   27.1450 N.pl3 570  ARG570     -0.0865
    186  CZ        30.2310   18.1560   26.1440 C.cat 570  ARG570      0.5346
    187  NH1       30.3840   17.6310   24.9370 N.pl3 570  ARG570      0.1354
    188  NH2       29.3140   19.0940   26.3420 N.pl3 570  ARG570      0.1354
    189  N         32.0880   25.6940   29.8300 N.3   573  ARG573     -0.1231
    190  CA        30.7100   25.9320   30.2220 C.3   573  ARG573      0.1694
    191  C         30.5790   27.3830   30.6590 C.2   573  ARG573      0.2591
    192  O         31.5750   28.0430   30.9600 O.2   573  ARG573     -0.2718
    193  CB        30.3050   24.9970   31.3690 C.3   573  ARG573      0.0321
    194  CG        30.6580   23.5370   31.1230 C.3   573  ARG573      0.0489
    195  CD        29.4060   22.7550   30.8160 C.3   573  ARG573      0.2205
    196  NE        29.4360   22.1620   29.4890 N.pl3 573  ARG573     -0.0865
    197  CZ        29.3100   22.8520   28.3650 C.cat 573  ARG573      0.5346
    198  NH1       29.1430   24.1640   28.4070 N.pl3 573  ARG573      0.1354
    199  NH2       29.3670   22.2260   27.2000 N.pl3 573  ARG573      0.1354
    200  N         29.3480   27.8780   30.6750 N.am  574  GLN574     -0.1979
    201  CA        29.0780   29.2500   31.0780 C.3   574  GLN574      0.1601
    202  C         29.6860   30.2750   30.1250 C.2   574  GLN574      0.2287
    203  O         29.1980   31.4000   30.0260 O.2   574  GLN574     -0.2864
    204  CB        29.6000   29.4860   32.4940 C.3   574  GLN574      0.0394
    205  CG        28.8810   30.6060   33.2230 C.3   574  GLN574      0.0908
    206  CD        29.0230   30.5080   34.7290 C.2   574  GLN574      0.2608
    207  OE1       28.3740   31.2410   35.4760 O.2   574  GLN574     -0.2717
    208  NE2       29.8730   29.5970   35.1820 N.am  574  GLN574     -0.0878
@<TRIPOS>BOND
     1    74    73   ar
     2   140   139    2
     3   139   138    1
     4    47    48    1
     5    53    54    1
     6    53    52    1
     7    73    75   ar
     8    73    72    1
     9   138   137    1
    10   138   141    1
    11    54    55    1
    12    52    51    1
    13    50    49    2
    14    51    48    1
    15    48    49    1
    16    38    39    1
    17   142   141    1
    18   142   143    1
    19    72    71    1
    20    49    56   am
    21   187   186    1
    22    41    40    2
    23    88    87    1
    24    40    39    1
    25    87    86    1
    26    39    42    1
    27   144   143   ar
    28   143   145   ar
    29    86    85    1
    30    71    68    1
    31    61    60    1
    32    85    84    1
    33    56    57    1
    34    59    58    2
    35   186   188    1
    36   186   185    2
    37    60    57    1
    38    60    62    1
    39    68    67    1
    40    68    69    1
    41   178   179    1
    42    29    30    2
    43    29    28    1
    44    42    43    1
    45    57    58    1
    46    43    44    1
    47    67    65   am
    48   184   185    1
    49   184   183    1
    50    58    63   am
    51   199   197    1
    52    69    70    2
    53    69    76   am
    54    31    28    1
    55    31    32    1
    56    84    81    1
    57    28    27    1
    58    81    80    1
    59    81    82    1
    60    76    77    1
    61   179   182    1
    62   179   180    1
    63    80    78   am
    64    65    66    2
    65    65    64    1
    66    32    34   ar
    67    32    33   ar
    68    34    36   ar
    69   183   182    1
    70    63    64    1
    71    44    45    2
    72    44    46   am
    73   197   198    1
    74   197   196    2
    75    23    22    2
    76    33    35   ar
    77   180   181    2
    78    36    37   ar
    79    78    77    1
    80    78    79    2
    81    27    22   am
    82    83    82    2
    83    82    89   am
    84    35    37   ar
    85    22    21    1
    86   196   195    1
    87   189   190    1
    88   203   202    2
    89   202   201    1
    90   146   147    1
    91   190   191    1
    92   190   193    1
    93    89    90    1
    94   114   112    1
    95   191   200   am
    96   191   192    2
    97   200   201    1
    98    98    99    2
    99    98    97    1
   100    21    24    1
   101    21    20    1
   102   195   194    1
   103   113   112    1
   104   201   204    1
   105   194   193    1
   106    12    11    2
   107   112   111    2
   108    92    91    2
   109   102   101    1
   110    90    91    1
   111    90    93    1
   112   149   148    2
   113    24    25    1
   114    20    11   am
   115    20    26    1
   116   147   148    1
   117   147   150    1
   118    91    96   am
   119   101   100    1
   120   101   103    1
   121    11    10    1
   122   168   166    1
   123    96    97    1
   124   151   150    1
   125    97   100    1
   126    25    26    1
   127   148   153   am
   128   150   152    1
   129   204   205    1
   130    10    13    1
   131    10     9    1
   132    94    93    1
   133   111   110    1
   134    93    95    1
   135   153   154    1
   136   205   206    1
   137   166   165    1
   138    13    14    1
   139     9     3   am
   140   154   157    1
   141   154   155    1
   142   110   109    1
   143   165   162    1
   144   165   167    1
   145   161   155   am
   146   161   162    1
   147     4     3    2
   148     3     2    1
   149   164   163    2
   150   157   158    1
   151   155   156    2
   152   162   163    1
   153   206   208   am
   154   206   207    2
   155    15    14    1
   156    15    16    1
   157    16    17    2
   158   163   169   am
   159   109   108    1
   160     2     5    1
   161     2     1    1
   162   108   105    1
   163     5     6    1
   164   136   134    1
   165   158   160   ar
   166   158   159   ar
   167   123   121   ar
   168   123   124   ar
   169   121   120   ar
   170   169   170    1
   171    19    17    1
   172    17    18    1
   173   172   171    2
   174   170   171    1
   175   170   173    1
   176   106   105    1
   177   106   107    2
   178     7     8    1
   179     7     6    1
   180   105   104    1
   181   124   126   ar
   182   124   122   ar
   183   120   119    1
   184   120   122   ar
   185   134   135    1
   186   134   133    1
   187   126   128   ar
   188   129   130    1
   189   174   173    1
   190   174   175    1
   191   119   116    1
   192   122   125   ar
   193   133   130    1
   194   128   127   ar
   195   176   175    1
   196   176   177    1
   197   117   118    2
   198   117   116    1
   199   125   127   ar
   200   130   131    1
   201   116   115    1
   202   132   131    2
