@<TRIPOS>MOLECULE
tmp/3diwB00.pdb
 211 208 0 0 0
SMALL
GASTEIGER

@<TRIPOS>ATOM
      1  N         -7.6900  -29.4550  -22.6360 N.3    17  LEU17      -0.1231
      2  CA        -7.4160  -28.5490  -21.5230 C.3    17  LEU17       0.1693
      3  C         -8.5350  -27.5030  -21.4970 C.2    17  LEU17       0.2592
      4  O         -8.8380  -26.8840  -22.5140 O.2    17  LEU17      -0.2718
      5  CB        -6.0500  -27.8850  -21.7280 C.3    17  LEU17       0.0284
      6  CG        -4.9230  -28.8800  -22.0370 C.3    17  LEU17       0.0019
      7  CD1       -3.6230  -28.1370  -22.3140 C.3    17  LEU17       0.0001
      8  CD2       -4.7520  -29.8350  -20.8700 C.3    17  LEU17       0.0001
      9  N         -9.1370  -27.3010  -20.3300 N.am   18  ILE18      -0.1966
     10  CA       -10.2660  -26.3810  -20.2000 C.3    18  ILE18       0.1727
     11  C        -10.0580  -25.2100  -19.2460 C.2    18  ILE18       0.2616
     12  O         -9.5170  -25.3720  -18.1510 O.2    18  ILE18      -0.2715
     13  CB       -11.5240  -27.1570  -19.7250 C.3    18  ILE18       0.0290
     14  CG1      -11.7920  -28.3330  -20.6670 C.3    18  ILE18       0.0022
     15  CG2      -12.7320  -26.2280  -19.6560 C.3    18  ILE18       0.0023
     16  CD1      -12.9540  -29.2190  -20.2420 C.3    18  ILE18       0.0001
     17  N        -10.5100  -24.0300  -19.6610 N.am   19  LEU19      -0.1963
     18  CA       -10.4060  -22.8440  -18.8160 C.3    19  LEU19       0.1728
     19  C        -11.7870  -22.4990  -18.2540 C.2    19  LEU19       0.2617
     20  O        -11.9010  -21.9580  -17.1620 O.2    19  LEU19      -0.2715
     21  CB        -9.8300  -21.6630  -19.6020 C.3    19  LEU19       0.0311
     22  CG        -8.3380  -21.7670  -19.9470 C.3    19  LEU19       0.0022
     23  CD1       -7.9350  -20.6240  -20.8610 C.3    19  LEU19       0.0001
     24  CD2       -7.5100  -21.7380  -18.6670 C.3    19  LEU19       0.0001
     25  N        -12.8360  -22.8140  -19.0050 N.am   20  GLY20      -0.1940
     26  CA       -14.1800  -22.5540  -18.5210 C.3    20  GLY20       0.2014
     27  C        -14.7910  -21.1850  -18.7620 C.2    20  GLY20       0.2639
     28  O        -15.6160  -20.7340  -17.9680 O.2    20  GLY20      -0.2714
     29  N        -14.3890  -20.5050  -19.8320 N.am   21  PHE21      -0.1959
     30  CA       -14.9740  -19.2040  -20.1400 C.3    21  PHE21       0.1771
     31  C        -14.8070  -18.8490  -21.6160 C.2    21  PHE21       0.2620
     32  O        -14.0150  -19.4680  -22.3340 O.2    21  PHE21      -0.2715
     33  CB       -14.3890  -18.1040  -19.2290 C.3    21  PHE21       0.0574
     34  CG       -12.9540  -17.7360  -19.5270 C.ar   21  PHE21      -0.0200
     35  CD1      -12.6560  -16.6110  -20.2940 C.ar   21  PHE21      -0.0042
     36  CD2      -11.9050  -18.4980  -19.0210 C.ar   21  PHE21      -0.0042
     37  CE1      -11.3330  -16.2440  -20.5560 C.ar   21  PHE21      -0.0003
     38  CE2      -10.5710  -18.1450  -19.2750 C.ar   21  PHE21      -0.0003
     39  CZ       -10.2840  -17.0160  -20.0440 C.ar   21  PHE21      -0.0000
     40  N        -15.5720  -17.8630  -22.0660 N.am   22  SER22      -0.1936
     41  CA       -15.5240  -17.4320  -23.4540 C.3    22  SER22       0.2055
     42  C        -15.0770  -15.9870  -23.5780 C.2    22  SER22       0.2643
     43  O        -15.3720  -15.1570  -22.7100 O.2    22  SER22      -0.2714
     44  CB       -16.9040  -17.5820  -24.0880 C.3    22  SER22       0.2130
     45  OG       -17.4150  -18.8800  -23.8620 O.3    22  SER22      -0.2179
     46  N        -14.3670  -15.6920  -24.6660 N.am   23  ILE23      -0.1963
     47  CA       -13.8870  -14.3380  -24.9270 C.3    23  ILE23       0.1727
     48  C        -14.4460  -13.7710  -26.2300 C.2    23  ILE23       0.2617
     49  O        -14.5850  -14.4830  -27.2260 O.2    23  ILE23      -0.2715
     50  CB       -12.3420  -14.2750  -25.0320 C.3    23  ILE23       0.0290
     51  CG1      -11.8530  -15.2760  -26.0810 C.3    23  ILE23       0.0022
     52  CG2      -11.7130  -14.5330  -23.6790 C.3    23  ILE23       0.0023
     53  CD1      -10.3670  -15.2040  -26.3480 C.3    23  ILE23       0.0001
     54  N        -14.7560  -12.4790  -26.2020 N.am   24  GLY24      -0.1940
     55  CA       -15.2580  -11.7940  -27.3760 C.3    24  GLY24       0.2014
     56  C        -14.4140  -10.5540  -27.6230 C.2    24  GLY24       0.2639
     57  O        -13.7660  -10.0470  -26.6980 O.2    24  GLY24      -0.2714
     58  N        -14.3950  -10.0640  -28.8600 N.am   25  GLY25      -0.1939
     59  CA       -13.6240   -8.8670  -29.1460 C.3    25  GLY25       0.2014
     60  C        -12.2420   -9.0640  -29.7390 C.2    25  GLY25       0.2639
     61  O        -11.8560  -10.1700  -30.1250 O.2    25  GLY25      -0.2714
     62  N        -11.4930   -7.9670  -29.7890 N.am   26  GLY26      -0.1954
     63  CA       -10.1580   -7.9660  -30.3600 C.3    26  GLY26       0.1869
     64  C        -10.1420   -6.7970  -31.3280 C.2    26  GLY26       0.2309
     65  O        -11.2070   -6.3850  -31.7890 O.2    26  GLY26      -0.2863
     66  N        -12.3550   -6.9830  -34.4690 N.3    29  GLN29      -0.1231
     67  CA       -13.8110   -7.1010  -34.3840 C.3    29  GLN29       0.1698
     68  C        -14.4350   -5.7050  -34.2530 C.2    29  GLN29       0.2592
     69  O        -13.7400   -4.7240  -33.9770 O.2    29  GLN29      -0.2718
     70  CB       -14.2340   -7.9960  -33.1990 C.3    29  GLN29       0.0381
     71  CG       -13.6380   -9.4070  -33.2290 C.3    29  GLN29       0.0905
     72  CD       -14.4910  -10.4490  -32.4910 C.2    29  GLN29       0.2608
     73  OE1      -15.2990  -10.1150  -31.6200 O.2    29  GLN29      -0.2717
     74  NE2      -14.2980  -11.7200  -32.8370 N.am   29  GLN29      -0.0878
     75  N        -15.7490   -5.6270  -34.4540 N.am   30  ASP30      -0.1960
     76  CA       -16.4840   -4.3640  -34.3950 C.3    30  ASP30       0.1825
     77  C        -16.8960   -4.0030  -32.9610 C.2    30  ASP30       0.2464
     78  O        -17.8370   -4.5770  -32.4110 O.2    30  ASP30      -0.2730
     79  CB       -17.7220   -4.4740  -35.2860 C.3    30  ASP30       0.1450
     80  CG       -18.4170   -3.1460  -35.4990 C.2    30  ASP30       0.3671
     81  OD1      -18.1110   -2.1800  -34.7710 O.co2  30  ASP30      -0.2456
     82  OD2      -19.2820   -3.0780  -36.3980 O.co2  30  ASP30      -0.2456
     83  N        -16.2110   -3.0210  -32.3500 N.am   31  PRO31      -0.2727
     84  CA       -16.5110   -2.5950  -30.9790 C.3    31  PRO31       0.1402
     85  C        -17.9370   -2.0970  -30.7530 C.2    31  PRO31       0.2269
     86  O        -18.4750   -2.2120  -29.6460 O.2    31  PRO31      -0.2865
     87  CB       -15.4610   -1.5150  -30.7190 C.3    31  PRO31       0.0296
     88  CG       -15.2620   -0.9100  -32.0760 C.3    31  PRO31       0.0237
     89  CD       -15.2100   -2.1300  -32.9700 C.3    31  PRO31       0.0939
     90  N        -20.4480   -3.4150  -31.6040 N.3    33  GLN33      -0.1231
     91  CA       -21.2870   -4.5870  -31.3820 C.3    33  GLN33       0.1698
     92  C        -20.9770   -5.2800  -30.0540 C.2    33  GLN33       0.2592
     93  O        -21.4370   -6.3950  -29.8050 O.2    33  GLN33      -0.2718
     94  CB       -21.1140   -5.5910  -32.5250 C.3    33  GLN33       0.0381
     95  CG       -21.6460   -5.1340  -33.8650 C.3    33  GLN33       0.0905
     96  CD       -23.1270   -4.8130  -33.8250 C.2    33  GLN33       0.2608
     97  OE1      -23.5160   -3.6500  -33.7750 O.2    33  GLN33      -0.2717
     98  NE2      -23.9620   -5.8480  -33.8360 N.am   33  GLN33      -0.0878
     99  N        -20.1880   -4.6260  -29.2100 N.am   34  ASN34      -0.1961
    100  CA       -19.8340   -5.1810  -27.9080 C.3    34  ASN34       0.1804
    101  C        -20.8650   -4.6760  -26.9020 C.2    34  ASN34       0.2463
    102  O        -20.9000   -3.4900  -26.5860 O.2    34  ASN34      -0.2730
    103  CB       -18.4370   -4.7090  -27.4880 C.3    34  ASN34       0.1195
    104  CG       -17.9770   -5.3210  -26.1710 C.2    34  ASN34       0.2630
    105  OD1      -18.7890   -5.7410  -25.3420 O.2    34  ASN34      -0.2716
    106  ND2      -16.6640   -5.3580  -25.9670 N.am   34  ASN34      -0.0877
    107  N        -21.7150   -5.5730  -26.3840 N.am   35  PRO35      -0.2716
    108  CA       -22.7520   -5.2060  -25.4110 C.3    35  PRO35       0.1536
    109  C        -22.2560   -5.0370  -23.9810 C.2    35  PRO35       0.2598
    110  O        -22.9830   -4.5350  -23.1260 O.2    35  PRO35      -0.2715
    111  CB       -23.7390   -6.3590  -25.5240 C.3    35  PRO35       0.0310
    112  CG       -22.8160   -7.5280  -25.7250 C.3    35  PRO35       0.0237
    113  CD       -21.8290   -6.9960  -26.7570 C.3    35  PRO35       0.0939
    114  N        -21.0230   -5.4550  -23.7200 N.am   36  PHE36      -0.1974
    115  CA       -20.4640   -5.3700  -22.3760 C.3    36  PHE36       0.1639
    116  C        -19.7070   -4.0780  -22.0700 C.2    36  PHE36       0.2290
    117  O        -19.7030   -3.6070  -20.9320 O.2    36  PHE36      -0.2864
    118  CB       -19.5360   -6.5640  -22.1330 C.3    36  PHE36       0.0560
    119  CG       -20.2270   -7.8930  -22.2150 C.ar   36  PHE36      -0.0200
    120  CD1      -21.0410   -8.3360  -21.1730 C.ar   36  PHE36      -0.0042
    121  CD2      -20.0700   -8.7040  -23.3340 C.ar   36  PHE36      -0.0042
    122  CE1      -21.6910   -9.5710  -21.2450 C.ar   36  PHE36      -0.0003
    123  CE2      -20.7150   -9.9360  -23.4160 C.ar   36  PHE36      -0.0003
    124  CZ       -21.5280  -10.3690  -22.3650 C.ar   36  PHE36      -0.0000
    125  N        -14.2270    0.5000  -27.5120 N.3    42  ASP42      -0.1225
    126  CA       -13.3550   -0.4670  -26.8560 C.3    42  ASP42       0.1805
    127  C        -13.2230   -1.7480  -27.6720 C.2    42  ASP42       0.2598
    128  O        -14.1820   -2.5070  -27.8000 O.2    42  ASP42      -0.2718
    129  CB       -13.9270   -0.8200  -25.4830 C.3    42  ASP42       0.1424
    130  CG       -12.9010   -1.4480  -24.5640 C.2    42  ASP42       0.3668
    131  OD1      -11.9780   -2.1320  -25.0560 O.co2  42  ASP42      -0.2456
    132  OD2      -13.0300   -1.2640  -23.3380 O.co2  42  ASP42      -0.2456
    133  N        -12.0380   -1.9940  -28.2160 N.am   43  LYS43      -0.1966
    134  CA       -11.8140   -3.2060  -28.9930 C.3    43  LYS43       0.1728
    135  C        -11.1600   -4.2720  -28.1250 C.2    43  LYS43       0.2616
    136  O        -10.5730   -5.2240  -28.6370 O.2    43  LYS43      -0.2715
    137  CB       -10.9210   -2.9250  -30.2070 C.3    43  LYS43       0.0311
    138  CG       -11.6390   -2.2750  -31.3770 C.3    43  LYS43       0.0038
    139  CD       -11.3820   -0.7840  -31.4280 C.3    43  LYS43       0.0206
    140  CE        -9.9230   -0.4970  -31.7510 C.3    43  LYS43       0.1093
    141  NZ        -9.6510    0.9650  -31.7630 N.3    43  LYS43      -0.1314
    142  N        -11.2710   -4.1050  -26.8100 N.am   44  GLY44      -0.1955
    143  CA       -10.6680   -5.0500  -25.8880 C.3    44  GLY44       0.1869
    144  C        -11.2590   -6.4490  -25.8900 C.2    44  GLY44       0.2309
    145  O        -12.2450   -6.7370  -26.5730 O.2    44  GLY44      -0.2863
    146  N        -13.1940   -9.1990  -23.9470 N.3    46  TYR46      -0.1241
    147  CA       -14.1470   -9.3050  -22.8520 C.3    46  TYR46       0.1605
    148  C        -14.5890  -10.7330  -22.5780 C.2    46  TYR46       0.2264
    149  O        -14.6970  -11.5530  -23.4980 O.2    46  TYR46      -0.2867
    150  CB       -15.3880   -8.4550  -23.1480 C.3    46  TYR46       0.0534
    151  CG       -15.2090   -6.9830  -22.8720 C.ar   46  TYR46      -0.0201
    152  CD1      -15.7730   -6.3970  -21.7420 C.ar   46  TYR46      -0.0009
    153  CD2      -14.4660   -6.1760  -23.7360 C.ar   46  TYR46      -0.0009
    154  CE1      -15.6070   -5.0430  -21.4760 C.ar   46  TYR46       0.0417
    155  CE2      -14.2910   -4.8180  -23.4800 C.ar   46  TYR46       0.0417
    156  CZ       -14.8650   -4.2570  -22.3490 C.ar   46  TYR46       0.1957
    157  OH       -14.7100   -2.9110  -22.0900 O.3    46  TYR46      -0.2866
    158  N        -17.3090  -13.1540  -21.9730 N.3    48  THR48      -0.1203
    159  CA       -18.7240  -13.1790  -22.3230 C.3    48  THR48       0.1994
    160  C        -19.5080  -14.3120  -21.6770 C.2    48  THR48       0.2617
    161  O        -20.7370  -14.2660  -21.6100 O.2    48  THR48      -0.2717
    162  CB       -18.8780  -13.3010  -23.8400 C.3    48  THR48       0.1784
    163  OG1      -18.3960  -14.5860  -24.2530 O.3    48  THR48      -0.2211
    164  CG2      -18.0630  -12.2020  -24.5550 C.3    48  THR48       0.0376
    165  N        -18.7970  -15.3390  -21.2270 N.am   49  ARG49      -0.1979
    166  CA       -19.4330  -16.4860  -20.5880 C.3    49  ARG49       0.1597
    167  C        -18.4680  -17.0980  -19.5880 C.2    49  ARG49       0.2287
    168  O        -17.2510  -17.0170  -19.7560 O.2    49  ARG49      -0.2864
    169  CB       -19.7970  -17.5550  -21.6240 C.3    49  ARG49       0.0334
    170  CG       -20.5570  -17.0510  -22.8340 C.3    49  ARG49       0.0492
    171  CD       -20.7520  -18.1760  -23.8210 C.3    49  ARG49       0.2205
    172  NE       -21.7020  -19.1560  -23.3130 N.pl3  49  ARG49      -0.0865
    173  CZ       -21.7900  -20.4120  -23.7360 C.cat  49  ARG49       0.5346
    174  NH1      -20.9730  -20.8620  -24.6800 N.pl3  49  ARG49       0.1354
    175  NH2      -22.7140  -21.2140  -23.2200 N.pl3  49  ARG49       0.1354
    176  N         -8.5040  -10.9810  -32.1350 N.3    80  HIS80      -0.1241
    177  CA        -9.2380  -12.0180  -31.4310 C.3    80  HIS80       0.1621
    178  C         -8.4050  -13.3000  -31.3140 C.2    80  HIS80       0.2264
    179  O         -8.3180  -13.9070  -30.2380 O.2    80  HIS80      -0.2867
    180  CB       -10.5340  -12.3350  -32.1700 C.3    80  HIS80       0.0745
    181  CG       -11.4280  -13.2780  -31.4310 C.ar   80  HIS80       0.0817
    182  ND1      -12.2630  -12.8660  -30.4150 N.ar   80  HIS80      -0.2268
    183  CD2      -11.5990  -14.6170  -31.5410 C.ar   80  HIS80       0.1154
    184  CE1      -12.9120  -13.9120  -29.9310 C.ar   80  HIS80       0.1986
    185  NE2      -12.5260  -14.9860  -30.5980 N.ar   80  HIS80      -0.2212
    186  N         -6.7920  -15.5620  -28.1470 N.3    84  ARG84      -0.1245
    187  CA        -7.1090  -16.9830  -28.0690 C.3    84  ARG84       0.1563
    188  C         -5.8350  -17.8070  -27.9000 C.2    84  ARG84       0.2260
    189  O         -5.7550  -18.6620  -27.0200 O.2    84  ARG84      -0.2867
    190  CB        -7.8380  -17.4310  -29.3360 C.3    84  ARG84       0.0307
    191  CG        -8.3350  -18.8570  -29.2870 C.3    84  ARG84       0.0489
    192  CD        -8.8780  -19.2820  -30.6400 C.3    84  ARG84       0.2205
    193  NE        -7.8400  -19.2260  -31.6680 N.pl3  84  ARG84      -0.0865
    194  CZ        -6.7300  -19.9600  -31.6530 C.cat  84  ARG84       0.5346
    195  NH1       -6.5070  -20.8140  -30.6610 N.pl3  84  ARG84       0.1354
    196  NH2       -5.8370  -19.8380  -32.6280 N.pl3  84  ARG84       0.1354
    197  N         -4.1580  -17.5990  -24.4540 N.3    87  LEU87      -0.1231
    198  CA        -4.8800  -18.3320  -23.4280 C.3    87  LEU87       0.1693
    199  C         -4.8980  -19.8360  -23.6300 C.2    87  LEU87       0.2592
    200  O         -5.4150  -20.5730  -22.7930 O.2    87  LEU87      -0.2718
    201  CB        -6.3150  -17.7990  -23.3430 C.3    87  LEU87       0.0284
    202  CG        -6.4220  -16.3770  -22.7820 C.3    87  LEU87       0.0019
    203  CD1       -7.7240  -15.7140  -23.2250 C.3    87  LEU87       0.0001
    204  CD2       -6.3140  -16.4330  -21.2610 C.3    87  LEU87       0.0001
    205  N         -4.3310  -20.2980  -24.7350 N.am   88  THR88      -0.1953
    206  CA        -4.3160  -21.7220  -25.0060 C.3    88  THR88       0.1897
    207  C         -2.9140  -22.2860  -25.1510 C.2    88  THR88       0.2313
    208  O         -2.6740  -23.1680  -25.9750 O.2    88  THR88      -0.2863
    209  CB        -5.1400  -22.0570  -26.2690 C.3    88  THR88       0.1794
    210  OG1       -4.6870  -21.2580  -27.3680 O.3    88  THR88      -0.2208
    211  CG2       -6.6160  -21.7860  -26.0220 C.3    88  THR88       0.0378
@<TRIPOS>BOND
     1    82    80   ar
     2    80    79    1
     3    80    81   ar
     4    79    76    1
     5    66    67    1
     6    75    76    1
     7    75    68   am
     8    76    77    1
     9    67    68    1
    10    67    70    1
    11    68    69    2
    12    95    96    1
    13    95    94    1
    14    98    96   am
    15    96    97    2
    16    71    70    1
    17    71    72    1
    18    89    83    1
    19    89    88    1
    20    77    78    2
    21    77    83   am
    22    74    72   am
    23   196   194    1
    24    94    91    1
    25    72    73    2
    26    83    84    1
    27   180   181    1
    28   180   177    1
    29   176   177    1
    30    88    87    1
    31    65    64    2
    32   141   140    1
    33   140   139    1
    34   193   194    2
    35   193   192    1
    36   194   195    1
    37    90    91    1
    38   183   181   ar
    39   183   185   ar
    40   181   182   ar
    41   177   178    1
    42   139   138    1
    43    91    92    1
    44   138   137    1
    45    64    63    1
    46   178   179    2
    47    84    85    1
    48    84    87    1
    49    85    86    2
    50   192   191    1
    51   185   184   ar
    52   182   184   ar
    53    63    62    1
    54   137   134    1
    55    61    60    2
    56    92    93    2
    57    92    99   am
    58    62    60   am
    59    60    59    1
    60   190   191    1
    61   190   187    1
    62    99   100    1
    63    59    58    1
    64   134   133    1
    65   134   135    1
    66    58    56   am
    67   136   135    2
    68   133   127   am
    69   186   187    1
    70   135   142   am
    71   187   188    1
    72   100   103    1
    73   100   101    1
    74   188   189    2
    75   128   127    2
    76   127   126    1
    77    56    55    1
    78    56    57    2
    79   125   126    1
    80   103   104    1
    81    55    54    1
    82   210   209    1
    83    49    48    2
    84   101   102    2
    85   101   107   am
    86   126   129    1
    87   142   143    1
    88   113   107    1
    89   113   112    1
    90   145   144    2
    91   107   108    1
    92    53    51    1
    93   209   211    1
    94   209   206    1
    95    48    54   am
    96    48    47    1
    97   104   106   am
    98   104   105    2
    99    51    50    1
   100   208   207    2
   101   144   143    1
   102   112   111    1
   103   111   108    1
   104   129   130    1
   105   108   109    1
   106   207   206    1
   107   131   130   ar
   108    50    47    1
   109    50    52    1
   110   206   205    1
   111    47    46    1
   112   205   199   am
   113   174   173    1
   114    46    42   am
   115   130   132   ar
   116   164   162    1
   117   197   198    1
   118   163   162    1
   119    44    45    1
   120    44    41    1
   121   109   114   am
   122   109   110    2
   123   146   147    1
   124   162   159    1
   125   171   172    1
   126   171   170    1
   127   173   172    2
   128   173   175    1
   129   153   155   ar
   130   153   151   ar
   131   114   115    1
   132   199   198    1
   133   199   200    2
   134    42    41    1
   135    42    43    2
   136   149   148    2
   137   155   156   ar
   138    41    40    1
   139   198   201    1
   140   123   121   ar
   141   123   124   ar
   142   201   202    1
   143   121   119   ar
   144   203   202    1
   145   150   151    1
   146   150   147    1
   147   151   152   ar
   148   147   148    1
   149   170   169    1
   150   202   204    1
   151     1     2    1
   152     4     3    2
   153   115   118    1
   154   115   116    1
   155   124   122   ar
   156   156   157    1
   157   156   154   ar
   158    32    31    2
   159   159   158    1
   160   159   160    1
   161     7     6    1
   162   119   118    1
   163   119   120   ar
   164   116   117    2
   165    40    31   am
   166     6     5    1
   167     6     8    1
   168   152   154   ar
   169     5     2    1
   170   160   161    2
   171   160   165   am
   172   169   166    1
   173    31    30    1
   174     2     3    1
   175     3     9   am
   176   122   120   ar
   177   165   166    1
   178    23    22    1
   179    14    16    1
   180    14    13    1
   181   166   167    1
   182    37    35   ar
   183    37    39   ar
   184     9    10    1
   185    35    34   ar
   186    10    13    1
   187    10    11    1
   188    30    29    1
   189    30    33    1
   190    39    38   ar
   191    22    21    1
   192    22    24    1
   193    29    27   am
   194   168   167    2
   195    13    15    1
   196    17    11   am
   197    17    18    1
   198    21    18    1
   199    34    33    1
   200    34    36   ar
   201    38    36   ar
   202    11    12    2
   203    25    26    1
   204    25    19   am
   205    18    19    1
   206    27    26    1
   207    27    28    2
   208    19    20    2
