@<TRIPOS>MOLECULE
tmp/3dj5A00.pdb
 235 221 0 0 0
SMALL
GASTEIGER

@<TRIPOS>ATOM
      1  N         52.2080   26.4900   17.0760 N.3    12  LEU12      -0.1231
      2  CA        53.0060   26.4100   15.8440 C.3    12  LEU12       0.1693
      3  C         52.9360   25.0360   15.1850 C.2    12  LEU12       0.2592
      4  O         52.9620   24.0010   15.8650 O.2    12  LEU12      -0.2718
      5  CB        54.4730   26.7260   16.1420 C.3    12  LEU12       0.0284
      6  CG        54.8510   28.1230   16.6240 C.3    12  LEU12       0.0019
      7  CD1       56.3470   28.1590   16.8840 C.3    12  LEU12       0.0001
      8  CD2       54.4470   29.1920   15.6050 C.3    12  LEU12       0.0001
      9  N         52.8500   25.0310   13.8570 N.am   13  GLY13      -0.1957
     10  CA        52.9830   23.7960   13.0800 C.3    13  GLY13       0.1869
     11  C         51.7480   22.9260   12.9640 C.2    13  GLY13       0.2309
     12  O         51.8270   21.7930   12.4750 O.2    13  GLY13      -0.2863
     13  N         54.2540   18.9000   14.8930 N.3    17  PHE17      -0.1241
     14  CA        55.4310   18.7770   15.7650 C.3    17  PHE17       0.1605
     15  C         55.0250   18.6140   17.2330 C.2    17  PHE17       0.2264
     16  O         55.8350   18.8370   18.1270 O.2    17  PHE17      -0.2867
     17  CB        56.3160   20.0210   15.6420 C.3    17  PHE17       0.0534
     18  CG        56.9210   20.2160   14.2790 C.ar   17  PHE17      -0.0203
     19  CD1       58.1530   19.6380   13.9670 C.ar   17  PHE17      -0.0042
     20  CD2       56.2750   20.9900   13.3170 C.ar   17  PHE17      -0.0042
     21  CE1       58.7270   19.8190   12.7070 C.ar   17  PHE17      -0.0003
     22  CE2       56.8440   21.1840   12.0560 C.ar   17  PHE17      -0.0003
     23  CZ        58.0750   20.5960   11.7550 C.ar   17  PHE17      -0.0000
     24  N         53.4890   22.7110   20.3660 N.3    20  VAL20      -0.1245
     25  CA        54.5340   23.7320   20.2280 C.3    20  VAL20       0.1561
     26  C         53.8710   25.1000   20.1260 C.2    20  VAL20       0.2260
     27  O         52.8820   25.2590   19.4040 O.2    20  VAL20      -0.2867
     28  CB        55.4410   23.4860   18.9720 C.3    20  VAL20       0.0252
     29  CG1       56.6280   24.4620   18.9530 C.3    20  VAL20       0.0019
     30  CG2       55.9570   22.0480   18.9460 C.3    20  VAL20       0.0019
     31  N         60.4890   29.2580   20.5630 N.3    33  ALA33      -0.1245
     32  CA        59.3960   28.3070   20.4990 C.3    33  ALA33       0.1562
     33  C         59.4930   27.3900   21.7050 C.2    33  ALA33       0.2260
     34  O         60.5750   26.9210   22.0500 O.2    33  ALA33      -0.2867
     35  CB        59.4270   27.5140   19.1990 C.3    33  ALA33       0.0290
     36  N         58.1600   23.8530   23.3360 N.3    35  LYS35      -0.1245
     37  CA        57.4840   22.5750   23.1130 C.3    35  LYS35       0.1561
     38  C         57.1330   21.9280   24.4510 C.2    35  LYS35       0.2260
     39  O         57.9870   21.8080   25.3300 O.2    35  LYS35      -0.2867
     40  CB        58.3450   21.6240   22.2840 C.3    35  LYS35       0.0271
     41  CG        57.6700   20.2930   22.0210 C.3    35  LYS35       0.0035
     42  CD        58.3420   19.5770   20.8660 C.3    35  LYS35       0.0206
     43  CE        57.7120   18.2270   20.6480 C.3    35  LYS35       0.1093
     44  NZ        58.1940   17.6180   19.3730 N.3    35  LYS35      -0.1314
     45  N         55.8460   18.6760   26.4590 N.3    37  LEU37      -0.1245
     46  CA        55.6860   17.2180   26.4550 C.3    37  LEU37       0.1561
     47  C         55.0010   16.7900   27.7480 C.2    37  LEU37       0.2260
     48  O         55.3670   17.2570   28.8250 O.2    37  LEU37      -0.2867
     49  CB        57.0550   16.5290   26.3340 C.3    37  LEU37       0.0270
     50  CG        57.9830   16.9480   25.1890 C.3    37  LEU37       0.0019
     51  CD1       59.4260   16.5640   25.4990 C.3    37  LEU37       0.0001
     52  CD2       57.5290   16.3110   23.9020 C.3    37  LEU37       0.0001
     53  N         55.2610   10.4580   27.8000 N.3    42  LEU42      -0.1245
     54  CA        56.6640   10.0250   27.8360 C.3    42  LEU42       0.1561
     55  C         56.8270    8.7170   28.5970 C.2    42  LEU42       0.2260
     56  O         57.5350    7.8080   28.1450 O.2    42  LEU42      -0.2867
     57  CB        57.5650   11.1060   28.4530 C.3    42  LEU42       0.0270
     58  CG        57.5830   12.4530   27.7250 C.3    42  LEU42       0.0019
     59  CD1       58.3580   13.4950   28.5260 C.3    42  LEU42       0.0001
     60  CD2       58.1720   12.2950   26.3210 C.3    42  LEU42       0.0001
     61  N         60.1760    6.4930   26.9490 N.3    47  VAL47      -0.1245
     62  CA        61.2130    7.3210   26.3050 C.3    47  VAL47       0.1561
     63  C         61.9300    8.3270   27.1900 C.2    47  VAL47       0.2260
     64  O         62.8020    9.0490   26.7020 O.2    47  VAL47      -0.2867
     65  CB        60.6640    8.0960   25.0790 C.3    47  VAL47       0.0252
     66  CG1       60.2050    7.1490   24.0200 C.3    47  VAL47       0.0019
     67  CG2       59.5140    9.0390   25.4840 C.3    47  VAL47       0.0019
     68  N         65.8150    8.0580   27.1380 N.3    50  GLN50      -0.1231
     69  CA        66.3510    8.3230   25.7990 C.3    50  GLN50       0.1698
     70  C         66.2470    9.8140   25.4630 C.2    50  GLN50       0.2592
     71  O         67.1780   10.3860   24.9000 O.2    50  GLN50      -0.2718
     72  CB        65.6460    7.4690   24.7310 C.3    50  GLN50       0.0381
     73  CG        66.1760    7.6590   23.2890 C.3    50  GLN50       0.0905
     74  CD        67.6650    7.3920   23.1320 C.2    50  GLN50       0.2608
     75  OE1       68.2280    6.5130   23.7850 O.2    50  GLN50      -0.2717
     76  NE2       68.3110    8.1470   22.2470 N.am   50  GLN50      -0.0878
     77  N         65.1160   10.4210   25.8270 N.am   51  LEU51      -0.1980
     78  CA        64.8950   11.8580   25.6550 C.3    51  LEU51       0.1596
     79  C         65.9490   12.6610   26.4080 C.2    51  LEU51       0.2287
     80  O         66.5080   13.6120   25.8640 O.2    51  LEU51      -0.2864
     81  CB        63.4900   12.2580   26.1160 C.3    51  LEU51       0.0297
     82  CG        63.1900   13.7590   26.0710 C.3    51  LEU51       0.0022
     83  CD1       63.2340   14.2810   24.6310 C.3    51  LEU51       0.0001
     84  CD2       61.8760   14.0870   26.7370 C.3    51  LEU51       0.0001
     85  N         69.3240   12.5960   24.6020 N.3    54  GLU54      -0.1231
     86  CA        69.2530   13.4040   23.3880 C.3    54  GLU54       0.1699
     87  C         69.2670   14.9090   23.6560 C.2    54  GLU54       0.2592
     88  O         70.0020   15.6410   22.9940 O.2    54  GLU54      -0.2718
     89  CB        68.0360   12.9960   22.5510 C.3    54  GLU54       0.0402
     90  CG        68.2590   11.6810   21.7810 C.3    54  GLU54       0.1161
     91  CD        67.0880   11.3380   20.8760 C.2    54  GLU54       0.3649
     92  OE1       66.5490   12.2610   20.2200 O.co2  54  GLU54      -0.2457
     93  OE2       66.7020   10.1510   20.8290 O.co2  54  GLU54      -0.2457
     94  N         68.4690   15.3680   24.6190 N.am   55  VAL55      -0.1980
     95  CA        68.4170   16.8070   24.9250 C.3    55  VAL55       0.1595
     96  C         69.7010   17.2870   25.6090 C.2    55  VAL55       0.2287
     97  O         70.1430   18.4070   25.3710 O.2    55  VAL55      -0.2864
     98  CB        67.1400   17.2360   25.7210 C.3    55  VAL55       0.0276
     99  CG1       65.8750   17.0350   24.8590 C.3    55  VAL55       0.0022
    100  CG2       67.0190   16.5080   27.0550 C.3    55  VAL55       0.0022
    101  N         71.9580   17.7680   22.6160 N.3    58  GLN58      -0.1245
    102  CA        71.5090   18.9200   21.8310 C.3    58  GLN58       0.1566
    103  C         71.7580   20.2640   22.5050 C.2    58  GLN58       0.2260
    104  O         72.0880   21.2480   21.8330 O.2    58  GLN58      -0.2867
    105  CB        70.0240   18.7920   21.4730 C.3    58  GLN58       0.0367
    106  CG        69.7410   17.7100   20.4390 C.3    58  GLN58       0.0905
    107  CD        68.2930   17.7090   19.9640 C.2    58  GLN58       0.2608
    108  OE1       67.7460   18.7520   19.5940 O.2    58  GLN58      -0.2717
    109  NE2       67.6720   16.5360   19.9620 N.am   58  GLN58      -0.0878
    110  N         68.2210   23.1810   13.9620 N.3    67  LEU67      -0.1231
    111  CA        67.3560   23.9680   14.8450 C.3    67  LEU67       0.1693
    112  C         67.9020   23.8550   16.2610 C.2    67  LEU67       0.2592
    113  O         68.1790   22.7490   16.7420 O.2    67  LEU67      -0.2718
    114  CB        65.8910   23.5250   14.7880 C.3    67  LEU67       0.0284
    115  CG        64.9380   24.4570   15.5510 C.3    67  LEU67       0.0019
    116  CD1       64.7300   25.7850   14.7990 C.3    67  LEU67       0.0001
    117  CD2       63.5980   23.7800   15.8620 C.3    67  LEU67       0.0001
    118  N         68.0920   24.9910   16.9220 N.am   68  ARG68      -0.1966
    119  CA        68.7820   24.9570   18.2150 C.3    68  ARG68       0.1729
    120  C         67.8670   24.6360   19.3920 C.2    68  ARG68       0.2616
    121  O         66.7610   25.1550   19.4860 O.2    68  ARG68      -0.2715
    122  CB        69.5300   26.2580   18.4830 C.3    68  ARG68       0.0348
    123  CG        70.3200   26.2100   19.7830 C.3    68  ARG68       0.0492
    124  CD        71.2360   27.4090   19.9320 C.3    68  ARG68       0.2205
    125  NE        71.9240   27.3830   21.2190 N.pl3  68  ARG68      -0.0865
    126  CZ        72.6090   28.4040   21.7270 C.cat  68  ARG68       0.5346
    127  NH1       72.7100   29.5510   21.0570 N.pl3  68  ARG68       0.1354
    128  NH2       73.1960   28.2760   22.9100 N.pl3  68  ARG68       0.1354
    129  N         68.3520   23.7700   20.2800 N.am   69  LEU69      -0.1977
    130  CA        67.7440   23.5820   21.5930 C.3    69  LEU69       0.1596
    131  C         68.5510   24.4110   22.5950 C.2    69  LEU69       0.2287
    132  O         69.7110   24.0790   22.8990 O.2    69  LEU69      -0.2864
    133  CB        67.7470   22.1020   21.9890 C.3    69  LEU69       0.0297
    134  CG        67.1250   21.7650   23.3490 C.3    69  LEU69       0.0022
    135  CD1       65.6310   21.9510   23.3310 C.3    69  LEU69       0.0001
    136  CD2       67.4660   20.3320   23.7220 C.3    69  LEU69       0.0001
    137  N         60.6840   21.9780   26.2860 N.3    81  LEU81      -0.1245
    138  CA        61.8560   22.2080   25.4540 C.3    81  LEU81       0.1561
    139  C         61.8630   23.6610   24.9900 C.2    81  LEU81       0.2260
    140  O         60.8550   24.1530   24.4700 O.2    81  LEU81      -0.2867
    141  CB        61.8630   21.2500   24.2540 C.3    81  LEU81       0.0270
    142  CG        62.5350   19.8670   24.3090 C.3    81  LEU81       0.0019
    143  CD1       62.6650   19.2650   25.7110 C.3    81  LEU81       0.0001
    144  CD2       61.8900   18.8890   23.2990 C.3    81  LEU81       0.0001
    145  N         63.1720   26.0170   22.3750 N.3    83  LEU83      -0.1231
    146  CA        63.6490   25.9040   20.9980 C.3    83  LEU83       0.1693
    147  C         63.8250   27.2530   20.3060 C.2    83  LEU83       0.2592
    148  O         63.0880   28.2080   20.5640 O.2    83  LEU83      -0.2718
    149  CB        62.6520   25.0830   20.1600 C.3    83  LEU83       0.0284
    150  CG        62.1960   23.7170   20.6910 C.3    83  LEU83       0.0019
    151  CD1       61.1350   23.1070   19.7730 C.3    83  LEU83       0.0001
    152  CD2       63.3800   22.7810   20.8420 C.3    83  LEU83       0.0001
    153  N         64.7930   27.2940   19.3980 N.am   84  GLU84      -0.1966
    154  CA        64.9150   28.3720   18.4130 C.3    84  GLU84       0.1733
    155  C         63.6170   28.4600   17.6090 C.2    84  GLU84       0.2616
    156  O         63.0530   27.4360   17.2120 O.2    84  GLU84      -0.2715
    157  CB        66.0920   28.0590   17.4810 C.3    84  GLU84       0.0429
    158  CG        66.3330   29.0760   16.3680 C.3    84  GLU84       0.1163
    159  CD        67.4740   28.6800   15.4350 C.2    84  GLU84       0.3649
    160  OE1       67.7930   29.4980   14.5490 O.co2  84  GLU84      -0.2457
    161  OE2       68.0490   27.5660   15.5760 O.co2  84  GLU84      -0.2457
    162  N         63.1410   29.6830   17.3910 N.am   85  TYR85      -0.1960
    163  CA        62.0270   29.9130   16.4870 C.3    85  TYR85       0.1771
    164  C         62.5720   30.1790   15.0880 C.2    85  TYR85       0.2619
    165  O         63.4530   31.0310   14.9080 O.2    85  TYR85      -0.2715
    166  CB        61.1750   31.0830   16.9680 C.3    85  TYR85       0.0574
    167  CG        60.0870   31.5020   15.9910 C.ar   85  TYR85      -0.0198
    168  CD1       60.0970   32.7690   15.4180 C.ar   85  TYR85      -0.0009
    169  CD2       59.0630   30.6220   15.6350 C.ar   85  TYR85      -0.0009
    170  CE1       59.0950   33.1620   14.5160 C.ar   85  TYR85       0.0417
    171  CE2       58.0550   31.0060   14.7310 C.ar   85  TYR85       0.0417
    172  CZ        58.0860   32.2720   14.1830 C.ar   85  TYR85       0.1957
    173  OH        57.1070   32.6570   13.2960 O.3    85  TYR85      -0.2866
    174  N         62.0500   29.4450   14.1100 N.am   86  ALA86      -0.1977
    175  CA        62.4150   29.6390   12.7000 C.3    86  ALA86       0.1597
    176  C         61.3490   30.4950   12.0140 C.2    86  ALA86       0.2287
    177  O         60.2500   30.0150   11.7200 O.2    86  ALA86      -0.2864
    178  CB        62.5680   28.2960   11.9990 C.3    86  ALA86       0.0319
    179  N         59.2340   29.7420    8.2520 N.3    89  GLY89      -0.1225
    180  CA        58.4040   28.5620    8.0150 C.3    89  GLY89       0.1811
    181  C         59.1820   27.3610    7.5230 C.2    89  GLY89       0.2280
    182  O         60.4020   27.3240    7.6200 O.2    89  GLY89      -0.2866
    183  N         65.6100   11.8630   12.7040 N.3   128  ARG128     -0.1245
    184  CA        64.6600   10.7690   12.4890 C.3   128  ARG128      0.1563
    185  C         63.9060   10.6270   11.1620 C.2   128  ARG128      0.2260
    186  O         63.4580    9.5240   10.8320 O.2   128  ARG128     -0.2867
    187  CB        63.6440   10.7710   13.6230 C.3   128  ARG128      0.0307
    188  CG        64.2580   10.3650   14.9500 C.3   128  ARG128      0.0489
    189  CD        63.2220   10.2370   16.0400 C.3   128  ARG128      0.2205
    190  NE        63.7740    9.4310   17.1330 N.pl3 128  ARG128     -0.0865
    191  CZ        64.5420    9.9050   18.1100 C.cat 128  ARG128      0.5346
    192  NH1       64.8160   11.2130   18.1910 N.pl3 128  ARG128      0.1354
    193  NH2       65.0090    9.0620   19.0280 N.pl3 128  ARG128      0.1354
    194  N         63.1960   23.5870    8.4340 N.3   136  LEU136     -0.1245
    195  CA        62.7190   24.9360    8.7420 C.3   136  LEU136      0.1561
    196  C         63.6510   26.0000    8.1620 C.2   136  LEU136      0.2260
    197  O         64.7900   25.7010    7.7720 O.2   136  LEU136     -0.2867
    198  CB        62.5510   25.1210   10.2590 C.3   136  LEU136      0.0270
    199  CG        61.4440   24.2990   10.9360 C.3   136  LEU136      0.0019
    200  CD1       61.6290   24.2950   12.4490 C.3   136  LEU136      0.0001
    201  CD2       60.0570   24.8280   10.5700 C.3   136  LEU136      0.0001
    202  N         65.0190   19.9320   11.6440 N.3   146  ALA146     -0.1245
    203  CA        64.1830   19.8750   12.8530 C.3   146  ALA146      0.1562
    204  C         63.5000   18.5100   13.0980 C.2   146  ALA146      0.2260
    205  O         62.5180   18.4330   13.8460 O.2   146  ALA146     -0.2867
    206  CB        63.1440   20.9940   12.8260 C.3   146  ALA146      0.0290
    207  N         63.5550   15.8250   14.9480 N.3   148  PHE148     -0.1227
    208  CA        64.0390   15.2330   16.1930 C.3   148  PHE148      0.1736
    209  C         62.9490   14.5460   17.0120 C.2   148  PHE148      0.2596
    210  O         63.2510   13.6450   17.7980 O.2   148  PHE148     -0.2718
    211  CB        64.7630   16.2780   17.0470 C.3   148  PHE148      0.0547
    212  CG        65.9290   16.9240   16.3520 C.ar  148  PHE148     -0.0202
    213  CD1       65.8580   18.2520   15.9320 C.ar  148  PHE148     -0.0042
    214  CD2       67.0970   16.2070   16.1160 C.ar  148  PHE148     -0.0042
    215  CE1       66.9360   18.8530   15.2840 C.ar  148  PHE148     -0.0003
    216  CE2       68.1840   16.7980   15.4700 C.ar  148  PHE148     -0.0003
    217  CZ        68.0970   18.1310   15.0540 C.ar  148  PHE148     -0.0000
    218  N         61.6970   14.9730   16.8360 N.am  149  GLY149     -0.1942
    219  CA        60.5680   14.3930   17.5750 C.3   149  GLY149      0.2014
    220  C         60.2340   12.9640   17.1530 C.2   149  GLY149      0.2638
    221  O         60.6010   12.5250   16.0550 O.2   149  GLY149     -0.2714
    222  N         59.5450   12.2290   18.0280 N.am  150  TRP150     -0.1973
    223  CA        59.1620   10.8390   17.7430 C.3   150  TRP150      0.1640
    224  C         57.8570   10.4810   18.4480 C.2   150  TRP150      0.2290
    225  O         57.7380   10.6580   19.6630 O.2   150  TRP150     -0.2864
    226  CB        60.2840    9.8700   18.1580 C.3   150  TRP150      0.0576
    227  CG        60.1870    8.4620   17.5910 C.ar  150  TRP150      0.0006
    228  CD1       60.1330    7.2950   18.3070 C.ar  150  TRP150      0.0946
    229  CD2       60.1690    8.0740   16.1980 C.ar  150  TRP150      0.0152
    230  NE1       60.0760    6.2110   17.4520 N.ar  150  TRP150     -0.2442
    231  CE2       60.0930    6.6600   16.1570 C.ar  150  TRP150      0.0810
    232  CE3       60.2040    8.7830   14.9870 C.ar  150  TRP150      0.0012
    233  CZ2       60.0420    5.9410   14.9480 C.ar  150  TRP150      0.0191
    234  CZ3       60.1710    8.0650   13.7810 C.ar  150  TRP150      0.0001
    235  CH2       60.0880    6.6570   13.7770 C.ar  150  TRP150      0.0015
@<TRIPOS>BOND
     1   181   182    2
     2   181   180    1
     3   197   196    2
     4   180   179    1
     5   196   195    1
     6   194   195    1
     7   195   198    1
     8   198   199    1
     9   201   199    1
    10   186   185    2
    11   199   200    1
    12   185   184    1
    13   202   203    1
    14   177   176    2
    15    23    22   ar
    16    23    21   ar
    17   178   175    1
    18   176   175    1
    19    22    20   ar
    20    12    11    2
    21   184   183    1
    22   184   187    1
    23   175   174    1
    24    21    19   ar
    25   206   203    1
    26   203   204    1
    27    11    10    1
    28    10     9    1
    29   204   205    2
    30   173   172    1
    31    20    18   ar
    32   187   188    1
    33   235   234   ar
    34   235   233   ar
    35   234   232   ar
    36     9     3   am
    37   110   111    1
    38    19    18   ar
    39   174   164   am
    40   172   170   ar
    41   172   171   ar
    42    18    17    1
    43   170   168   ar
    44   160   159   ar
    45   171   169   ar
    46   114   111    1
    47   114   115    1
    48   116   115    1
    49   111   112    1
    50    13    14    1
    51   165   164    2
    52   207   208    1
    53   233   231   ar
    54   188   189    1
    55   232   229   ar
    56   217   215   ar
    57   217   216   ar
    58   164   163    1
    59     3     2    1
    60     3     4    2
    61   215   213   ar
    62   168   167   ar
    63   159   161   ar
    64   159   158    1
    65   216   214   ar
    66   115   117    1
    67     8     6    1
    68   169   167   ar
    69    17    14    1
    70    14    15    1
    71     2     5    1
    72     2     1    1
    73   213   212   ar
    74   167   166    1
    75   189   190    1
    76   221   220    2
    77   214   212   ar
    78     5     6    1
    79   231   229   ar
    80   231   230   ar
    81   208   209    1
    82   208   211    1
    83   229   227   ar
    84   112   113    2
    85   112   118   am
    86   212   211    1
    87   158   157    1
    88   163   166    1
    89   163   162    1
    90     6     7    1
    91   218   209   am
    92   218   219    1
    93   118   119    1
    94   209   210    2
    95   190   191    2
    96   220   219    1
    97   220   222   am
    98   156   155    2
    99    15    16    2
   100   162   155   am
   101   230   228   ar
   102   157   154    1
   103   227   226    1
   104   227   228   ar
   105   155   154    1
   106   223   222    1
   107   223   226    1
   108   223   224    1
   109   191   192    1
   110   191   193    1
   111   119   122    1
   112   119   120    1
   113   154   153    1
   114   224   225    2
   115   122   123    1
   116    30    28    1
   117    29    28    1
   118    28    25    1
   119    35    32    1
   120    44    43    1
   121   120   121    2
   122   120   129   am
   123   153   147   am
   124    27    26    2
   125   108   107    2
   126   151   150    1
   127   123   124    1
   128   124   125    1
   129   109   107   am
   130   107   106    1
   131    26    25    1
   132   149   150    1
   133   149   146    1
   134    92    91   ar
   135    25    24    1
   136   129   130    1
   137   147   148    2
   138   147   146    1
   139   106   105    1
   140    32    31    1
   141    32    33    1
   142    43    42    1
   143   150   152    1
   144    93    91   ar
   145    42    41    1
   146    91    90    1
   147   146   145    1
   148   127   126    1
   149   125   126    2
   150   105   102    1
   151   130   133    1
   152   130   131    1
   153    33    34    2
   154   126   128    1
   155    90    89    1
   156   102   103    1
   157   102   101    1
   158   104   103    2
   159   133   134    1
   160    41    40    1
   161    76    74   am
   162    40    37    1
   163    89    86    1
   164   131   132    2
   165    88    87    2
   166    37    36    1
   167    37    38    1
   168    74    73    1
   169    74    75    2
   170    73    72    1
   171   144   142    1
   172   135   134    1
   173   134   136    1
   174    86    87    1
   175    86    85    1
   176    87    94   am
   177    52    50    1
   178    66    65    1
   179   141   142    1
   180   141   138    1
   181   142   143    1
   182    38    39    2
   183   140   139    2
   184    94    95    1
   185    83    82    1
   186    72    69    1
   187    99    98    1
   188    71    70    2
   189    95    96    1
   190    95    98    1
   191   139   138    1
   192    65    67    1
   193    65    62    1
   194    50    51    1
   195    50    49    1
   196    97    96    2
   197   138   137    1
   198    70    69    1
   199    70    77   am
   200    78    77    1
   201    78    81    1
   202    78    79    1
   203    98   100    1
   204    69    68    1
   205    80    79    2
   206    82    81    1
   207    82    84    1
   208    62    61    1
   209    62    63    1
   210    60    58    1
   211    49    46    1
   212    46    45    1
   213    46    47    1
   214    64    63    2
   215    58    57    1
   216    58    59    1
   217    47    48    2
   218    53    54    1
   219    54    57    1
   220    54    55    1
   221    56    55    2
