@<TRIPOS>MOLECULE
tmp/3dj7A00.pdb
 224 209 0 0 0
SMALL
GASTEIGER

@<TRIPOS>ATOM
      1  N         -0.3320   28.6060    3.0130 N.3    14  LEU14      -0.1245
      2  CA         0.5200   29.7720    3.2120 C.3    14  LEU14       0.1561
      3  C          1.8010   29.6740    2.3890 C.2    14  LEU14       0.2260
      4  O          2.4790   30.6790    2.1680 O.2    14  LEU14      -0.2867
      5  CB         0.8560   29.9490    4.6960 C.3    14  LEU14       0.0270
      6  CG        -0.2380   30.4620    5.6380 C.3    14  LEU14       0.0019
      7  CD1        0.1480   30.2040    7.0800 C.3    14  LEU14       0.0001
      8  CD2       -0.5160   31.9450    5.4230 C.3    14  LEU14       0.0001
      9  N         10.0350   22.8420    2.7760 N.3    18  LYS18      -0.1231
     10  CA        11.1260   21.8760    2.6460 C.3    18  LYS18       0.1693
     11  C         10.6530   20.4500    2.3420 C.2    18  LYS18       0.2592
     12  O         11.0520   19.8610    1.3320 O.2    18  LYS18      -0.2718
     13  CB        11.9810   21.9010    3.9190 C.3    18  LYS18       0.0285
     14  CG        13.4290   21.4630    3.7620 C.3    18  LYS18       0.0035
     15  CD        14.2610   21.9840    4.9280 C.3    18  LYS18       0.0206
     16  CE        13.8220   21.3430    6.2450 C.3    18  LYS18       0.1093
     17  NZ        14.1000   22.1910    7.4550 N.3    18  LYS18      -0.1314
     18  N          9.8060   19.9070    3.2150 N.am   19  PHE19      -0.1976
     19  CA         9.3000   18.5410    3.0680 C.3    19  PHE19       0.1639
     20  C          7.7710   18.4880    3.0450 C.2    19  PHE19       0.2290
     21  O          7.1740   17.4250    3.2390 O.2    19  PHE19      -0.2864
     22  CB         9.8570   17.6460    4.1820 C.3    19  PHE19       0.0560
     23  CG        11.2470   17.1320    3.9150 C.ar   19  PHE19      -0.0200
     24  CD1       12.3580   17.9530    4.0930 C.ar   19  PHE19      -0.0042
     25  CD2       11.4460   15.8210    3.4950 C.ar   19  PHE19      -0.0042
     26  CE1       13.6460   17.4780    3.8480 C.ar   19  PHE19      -0.0003
     27  CE2       12.7300   15.3360    3.2490 C.ar   19  PHE19      -0.0003
     28  CZ        13.8310   16.1670    3.4260 C.ar   19  PHE19      -0.0000
     29  N          2.7700   24.5220    4.1210 N.3    22  VAL22      -0.1245
     30  CA         2.3810   25.2410    5.3310 C.3    22  VAL22       0.1561
     31  C          0.9690   25.7900    5.1580 C.2    22  VAL22       0.2260
     32  O          0.6810   26.4870    4.1850 O.2    22  VAL22      -0.2867
     33  CB         3.3510   26.4020    5.6610 C.3    22  VAL22       0.0252
     34  CG1        3.0880   26.9330    7.0640 C.3    22  VAL22       0.0019
     35  CG2        4.7990   25.9560    5.5290 C.3    22  VAL22       0.0019
     36  N          0.0240   28.6760   12.2190 N.3    35  ALA35      -0.1245
     37  CA         0.4060   27.9820   10.9950 C.3    35  ALA35       0.1562
     38  C          0.8080   26.5400   11.2980 C.2    35  ALA35       0.2260
     39  O          1.4790   26.2690   12.2970 O.2    35  ALA35      -0.2867
     40  CB         1.5400   28.7170   10.3050 C.3    35  ALA35       0.0290
     41  N          2.7730   23.3070    9.4670 N.3    37  LYS37      -0.1245
     42  CA         3.5020   22.6870    8.3690 C.3    37  LYS37       0.1561
     43  C          3.3300   21.1770    8.4290 C.2    37  LYS37       0.2260
     44  O          3.5780   20.5510    9.4610 O.2    37  LYS37      -0.2867
     45  CB         4.9800   23.0670    8.3800 C.3    37  LYS37       0.0271
     46  CG         5.6960   22.6800    7.0970 C.3    37  LYS37       0.0035
     47  CD         7.0860   23.2650    7.0390 C.3    37  LYS37       0.0206
     48  CE         7.8030   22.8620    5.7620 C.3    37  LYS37       0.1093
     49  NZ         9.2030   23.3700    5.7440 N.3    37  LYS37      -0.1314
     50  N          4.5030   17.6530    7.2270 N.3    39  LEU39      -0.1245
     51  CA         5.5830   16.8510    6.6560 C.3    39  LEU39       0.1561
     52  C          5.1540   15.3910    6.5610 C.2    39  LEU39       0.2260
     53  O          4.2660   14.9560    7.2940 O.2    39  LEU39      -0.2867
     54  CB         6.8490   16.9600    7.5090 C.3    39  LEU39       0.0270
     55  CG         7.3320   18.3410    7.9470 C.3    39  LEU39       0.0019
     56  CD1        6.8820   18.6250    9.3620 C.3    39  LEU39       0.0001
     57  CD2        8.8320   18.3850    7.8740 C.3    39  LEU39       0.0001
     58  N         10.8600   12.0410    5.4200 N.3    44  LEU44      -0.1245
     59  CA        11.8020   12.3360    6.5030 C.3    44  LEU44       0.1561
     60  C         12.7170   11.1500    6.7970 C.2    44  LEU44       0.2260
     61  O         13.9030   11.3310    7.0820 O.2    44  LEU44      -0.2867
     62  CB        11.0590   12.7510    7.7810 C.3    44  LEU44       0.0270
     63  CG        10.3270   14.0980    7.8410 C.3    44  LEU44       0.0019
     64  CD1        9.4170   14.1470    9.0590 C.3    44  LEU44       0.0001
     65  CD2       11.2940   15.2810    7.8510 C.3    44  LEU44       0.0001
     66  N         16.5210   12.4190    8.3680 N.3    49  VAL49      -0.1245
     67  CA        16.5490   13.7340    9.0140 C.3    49  VAL49       0.1561
     68  C         15.6290   13.8340   10.2360 C.2    49  VAL49       0.2260
     69  O         15.4700   14.9110   10.8120 O.2    49  VAL49      -0.2867
     70  CB        16.2240   14.8830    8.0080 C.3    49  VAL49       0.0252
     71  CG1       17.3910   15.1180    7.0530 C.3    49  VAL49       0.0019
     72  CG2       14.9330   14.5990    7.2400 C.3    49  VAL49       0.0019
     73  N         17.1210   15.4400   13.1430 N.3    52  GLN52      -0.1231
     74  CA        17.2940   16.8820   12.9480 C.3    52  GLN52       0.1698
     75  C         16.0240   17.6540   13.3120 C.2    52  GLN52       0.2592
     76  O         16.1000   18.7390   13.8940 O.2    52  GLN52      -0.2718
     77  CB        17.7130   17.1970   11.5080 C.3    52  GLN52       0.0381
     78  CG        19.1100   16.7140   11.1370 C.3    52  GLN52       0.0905
     79  CD        19.5010   17.0600    9.7060 C.2    52  GLN52       0.2608
     80  OE1       19.2750   18.1770    9.2360 O.2    52  GLN52      -0.2717
     81  NE2       20.1060   16.1000    9.0130 N.am   52  GLN52      -0.0878
     82  N         14.8680   17.0890   12.9660 N.am   53  LEU53      -0.1980
     83  CA        13.5780   17.6700   13.3250 C.3    53  LEU53       0.1596
     84  C         13.3660   17.6480   14.8380 C.2    53  LEU53       0.2287
     85  O         12.8580   18.6150   15.4070 O.2    53  LEU53      -0.2864
     86  CB        12.4340   16.9400   12.6130 C.3    53  LEU53       0.0297
     87  CG        11.0250   17.5360   12.7060 C.3    53  LEU53       0.0022
     88  CD1       10.9590   18.9270   12.0800 C.3    53  LEU53       0.0001
     89  CD2       10.0170   16.6100   12.0470 C.3    53  LEU53       0.0001
     90  N         15.3610   20.4430   16.2440 N.3    56  GLU56      -0.1245
     91  CA        14.7580   21.7540   15.9990 C.3    56  GLU56       0.1567
     92  C         13.7070   22.0750   17.0590 C.2    56  GLU56       0.2260
     93  O         13.7430   23.1450   17.6680 O.2    56  GLU56      -0.2867
     94  CB        14.1460   21.8300   14.5960 C.3    56  GLU56       0.0388
     95  CG        13.5350   23.1910   14.2600 C.3    56  GLU56       0.1160
     96  CD        12.7800   23.2090   12.9410 C.2    56  GLU56       0.3649
     97  OE1       12.7660   22.1790   12.2370 O.co2  56  GLU56      -0.2457
     98  OE2       12.1960   24.2600   12.6080 O.co2  56  GLU56      -0.2457
     99  N         14.0740   25.0990   19.5360 N.3    60  GLN60      -0.1245
    100  CA        13.0080   26.1050   19.5290 C.3    60  GLN60       0.1566
    101  C         12.1970   26.1650   20.8300 C.2    60  GLN60       0.2260
    102  O         11.5040   27.1530   21.0850 O.2    60  GLN60      -0.2867
    103  CB        12.0730   25.8940   18.3330 C.3    60  GLN60       0.0367
    104  CG        12.5940   26.4420   17.0030 C.3    60  GLN60       0.0905
    105  CD        12.2900   27.9220   16.7990 C.2    60  GLN60       0.2608
    106  OE1       12.5390   28.7510   17.6740 O.2    60  GLN60      -0.2717
    107  NE2       11.7550   28.2570   15.6310 N.am   60  GLN60      -0.0878
    108  N         10.7470   33.3450   14.8800 N.3    69  LEU69      -0.1245
    109  CA         9.4400   32.7050   14.7810 C.3    69  LEU69       0.1561
    110  C          9.3230   31.5590   15.7810 C.2    69  LEU69       0.2260
    111  O         10.2210   30.7200   15.8860 O.2    69  LEU69      -0.2867
    112  CB         9.1760   32.1970   13.3610 C.3    69  LEU69       0.0270
    113  CG         7.7060   31.8860   13.0570 C.3    69  LEU69       0.0019
    114  CD1        6.9700   33.1340   12.5830 C.3    69  LEU69       0.0001
    115  CD2        7.5810   30.7700   12.0400 C.3    69  LEU69       0.0001
    116  N          3.9720   20.4030   12.4190 N.3    83  LEU83      -0.1245
    117  CA         4.6420   21.4100   13.2370 C.3    83  LEU83       0.1561
    118  C          3.6860   22.5500   13.5750 C.2    83  LEU83       0.2260
    119  O          3.0940   23.1550   12.6800 O.2    83  LEU83      -0.2867
    120  CB         5.8670   21.9690   12.5080 C.3    83  LEU83       0.0270
    121  CG         7.0480   21.0540   12.1830 C.3    83  LEU83       0.0019
    122  CD1        7.9680   21.7430   11.1890 C.3    83  LEU83       0.0001
    123  CD2        7.8100   20.6650   13.4420 C.3    83  LEU83       0.0001
    124  N          3.2280   26.1430   14.4720 N.3    85  LEU85      -0.1231
    125  CA         4.0740   27.3100   14.2430 C.3    85  LEU85       0.1693
    126  C          3.3470   28.6360   14.4350 C.2    85  LEU85       0.2592
    127  O          2.1320   28.7250   14.2490 O.2    85  LEU85      -0.2718
    128  CB         4.6670   27.2500   12.8300 C.3    85  LEU85       0.0284
    129  CG         5.6750   26.1390   12.5160 C.3    85  LEU85       0.0019
    130  CD1        5.6400   25.7810   11.0360 C.3    85  LEU85       0.0001
    131  CD2        7.0790   26.5370   12.9460 C.3    85  LEU85       0.0001
    132  N          4.1120   29.6600   14.8120 N.am   86  GLU86      -0.1966
    133  CA         3.6250   31.0350   14.8650 C.3    86  GLU86       0.1733
    134  C          3.2840   31.5090   13.4550 C.2    86  GLU86       0.2616
    135  O          4.0620   31.3090   12.5210 O.2    86  GLU86      -0.2715
    136  CB         4.6840   31.9530   15.4850 C.3    86  GLU86       0.0429
    137  CG         4.2360   33.4000   15.6840 C.3    86  GLU86       0.1163
    138  CD         5.3610   34.3250   16.1280 C.2    86  GLU86       0.3649
    139  OE1        5.2000   35.5550   15.9800 O.co2  86  GLU86      -0.2457
    140  OE2        6.4020   33.8390   16.6230 O.co2  86  GLU86      -0.2457
    141  N          2.1150   32.1250   13.3130 N.am   87  TYR87      -0.1960
    142  CA         1.6730   32.6680   12.0360 C.3    87  TYR87       0.1771
    143  C          2.3410   34.0180   11.7680 C.2    87  TYR87       0.2619
    144  O          2.3410   34.9020   12.6270 O.2    87  TYR87      -0.2715
    145  CB         0.1430   32.7770   12.0260 C.3    87  TYR87       0.0574
    146  CG        -0.4560   33.6070   10.9080 C.ar   87  TYR87      -0.0198
    147  CD1       -1.3030   34.6750   11.1950 C.ar   87  TYR87      -0.0009
    148  CD2       -0.1900   33.3190    9.5680 C.ar   87  TYR87      -0.0009
    149  CE1       -1.8700   35.4380   10.1810 C.ar   87  TYR87       0.0417
    150  CE2       -0.7500   34.0810    8.5440 C.ar   87  TYR87       0.0417
    151  CZ        -1.5910   35.1360    8.8590 C.ar   87  TYR87       0.1957
    152  OH        -2.1450   35.8950    7.8550 O.3    87  TYR87      -0.2866
    153  N          2.9330   34.1560   10.5830 N.am   88  ALA88      -0.1977
    154  CA         3.5170   35.4260   10.1510 C.3    88  ALA88       0.1597
    155  C          2.6630   36.0370    9.0340 C.2    88  ALA88       0.2287
    156  O          2.7220   35.5820    7.8890 O.2    88  ALA88      -0.2864
    157  CB         4.9530   35.2300    9.7030 C.3    88  ALA88       0.0319
    158  N          3.8850   37.3410    5.4080 N.3    91  GLY91      -0.1210
    159  CA         4.5670   36.3740    4.5450 C.3    91  GLY91       0.1956
    160  C          6.0820   36.3480    4.6180 C.2    91  GLY91       0.2612
    161  O          6.6860   36.8800    5.5540 O.2    91  GLY91      -0.2717
    162  N          6.6890   35.7180    3.6140 N.am   92  THR92      -0.1952
    163  CA         8.1420   35.5850    3.5200 C.3    92  THR92       0.1897
    164  C          8.7960   36.8490    2.9730 C.2    92  THR92       0.2313
    165  O          8.1970   37.5800    2.1780 O.2    92  THR92      -0.2863
    166  CB         8.5610   34.4000    2.6060 C.3    92  THR92       0.1794
    167  OG1        8.1960   34.6800    1.2480 O.3    92  THR92      -0.2208
    168  CG2        7.9060   33.0950    3.0470 C.3    92  THR92       0.0378
    169  N         13.8970   32.9040    2.0670 N.3   135  GLU135     -0.1231
    170  CA        12.7550   32.0080    2.2850 C.3   135  GLU135      0.1699
    171  C         12.6230   31.5060    3.7290 C.2   135  GLU135      0.2592
    172  O         11.5880   30.9480    4.1020 O.2   135  GLU135     -0.2718
    173  CB        12.7450   30.8360    1.2890 C.3   135  GLU135      0.0402
    174  CG        14.1020   30.2240    0.9950 C.3   135  GLU135      0.1161
    175  CD        14.7970   30.8870   -0.1810 C.2   135  GLU135      0.3649
    176  OE1       14.5700   30.4550   -1.3340 O.co2 135  GLU135     -0.2457
    177  OE2       15.5780   31.8360    0.0510 O.co2 135  GLU135     -0.2457
    178  N         13.6650   31.7090    4.5320 N.am  136  ASN136     -0.1974
    179  CA        13.6190   31.3700    5.9550 C.3   136  ASN136      0.1688
    180  C         13.4690   32.6010    6.8450 C.2   136  ASN136      0.2292
    181  O         13.7280   32.5520    8.0490 O.2   136  ASN136     -0.2864
    182  CB        14.8440   30.5450    6.3630 C.3   136  ASN136      0.1181
    183  CG        14.7820   29.1070    5.8640 C.2   136  ASN136      0.2629
    184  OD1       15.7880   28.4010    5.8730 O.2   136  ASN136     -0.2716
    185  ND2       13.6030   28.6680    5.4290 N.am  136  ASN136     -0.0877
    186  N         10.5860   35.5610    7.7930 N.3   138  LEU138     -0.1245
    187  CA         9.1770   35.9320    7.7060 C.3   138  LEU138      0.1561
    188  C          8.9210   37.3080    8.3170 C.2   138  LEU138      0.2260
    189  O          9.7870   37.8660    8.9890 O.2   138  LEU138     -0.2867
    190  CB         8.3100   34.8710    8.3860 C.3   138  LEU138      0.0270
    191  CG         8.4620   33.4130    7.9400 C.3   138  LEU138      0.0019
    192  CD1        7.7870   32.4950    8.9300 C.3   138  LEU138      0.0001
    193  CD2        7.8900   33.1850    6.5560 C.3   138  LEU138      0.0001
    194  N         13.1740   31.8740   10.8740 N.3   148  ALA148     -0.1231
    195  CA        12.5040   30.5860   11.0130 C.3   148  ALA148      0.1694
    196  C         13.3540   29.4340   10.4790 C.2   148  ALA148      0.2592
    197  O         14.4210   29.6590    9.9040 O.2   148  ALA148     -0.2718
    198  CB        11.1490   30.6240   10.3110 C.3   148  ALA148      0.0304
    199  N         12.8650   28.2090   10.6880 N.am  149  ASP149     -0.1974
    200  CA        13.4770   26.9750   10.1750 C.3   149  ASP149      0.1709
    201  C         14.8530   26.6880   10.7860 C.2   149  ASP149      0.2293
    202  O         15.8870   27.0540   10.2250 O.2   149  ASP149     -0.2864
    203  CB        13.5350   26.9870    8.6370 C.3   149  ASP149      0.1436
    204  CG        13.6660   25.5960    8.0350 C.2   149  ASP149      0.3671
    205  OD1       13.3280   25.4410    6.8420 O.co2 149  ASP149     -0.2456
    206  OD2       14.1000   24.6580    8.7380 O.co2 149  ASP149     -0.2456
    207  N         15.9360   23.6120   11.3100 N.3   151  GLY151     -0.1210
    208  CA        16.1660   22.2080   10.9700 C.3   151  GLY151      0.1956
    209  C         17.6160   21.8590   10.6940 C.2   151  GLY151      0.2611
    210  O         18.0390   20.7260   10.9230 O.2   151  GLY151     -0.2717
    211  N         18.3780   22.8350   10.2070 N.am  152  TRP152     -0.1976
    212  CA        19.7850   22.6310    9.8670 C.3   152  TRP152      0.1640
    213  C         20.7060   23.2490   10.9170 C.2   152  TRP152      0.2290
    214  O         21.9130   23.3810   10.7040 O.2   152  TRP152     -0.2864
    215  CB        20.0840   23.1950    8.4730 C.3   152  TRP152      0.0576
    216  CG        19.1330   22.6940    7.4320 C.ar  152  TRP152      0.0006
    217  CD1       18.0070   23.3230    6.9810 C.ar  152  TRP152      0.0946
    218  CD2       19.2040   21.4460    6.7300 C.ar  152  TRP152      0.0152
    219  NE1       17.3790   22.5500    6.0330 N.ar  152  TRP152     -0.2442
    220  CE2       18.0910   21.3920    5.8600 C.ar  152  TRP152      0.0810
    221  CE3       20.1050   20.3700    6.7460 C.ar  152  TRP152      0.0012
    222  CZ2       17.8510   20.3030    5.0130 C.ar  152  TRP152      0.0191
    223  CZ3       19.8670   19.2870    5.9020 C.ar  152  TRP152      0.0001
    224  CH2       18.7480   19.2630    5.0480 C.ar  152  TRP152      0.0015
@<TRIPOS>BOND
     1   176   175   ar
     2   175   177   ar
     3   175   174    1
     4   174   173    1
     5   167   166    1
     6   173   170    1
     7    12    11    2
     8   169   170    1
     9     4     3    2
    10   165   164    2
    11   170   171    1
    12    11    10    1
    13    11    18   am
    14     3     2    1
    15   166   168    1
    16   166   163    1
    17    10     9    1
    18    10    13    1
    19   164   163    1
    20     1     2    1
    21    20    19    1
    22    20    21    2
    23    19    18    1
    24    19    22    1
    25     2     5    1
    26    27    28   ar
    27    27    25   ar
    28    28    26   ar
    29    25    23   ar
    30   163   162    1
    31   162   160   am
    32   171   172    2
    33   171   178   am
    34    14    13    1
    35    14    15    1
    36    26    24   ar
    37    23    24   ar
    38    23    22    1
    39    29    30    1
    40    32    31    2
    41   178   179    1
    42   159   160    1
    43   159   158    1
    44   160   161    2
    45     5     6    1
    46    15    16    1
    47   222   224   ar
    48   222   220   ar
    49   224   223   ar
    50    31    30    1
    51    30    33    1
    52    58    59    1
    53     8     6    1
    54   185   183   am
    55    35    33    1
    56     6     7    1
    57    33    34    1
    58    49    48    1
    59    48    47    1
    60   220   219   ar
    61   220   218   ar
    62   183   184    2
    63   183   182    1
    64   223   221   ar
    65   179   182    1
    66   179   180    1
    67   219   217   ar
    68    16    17    1
    69    59    60    1
    70    59    62    1
    71   193   191    1
    72    52    51    1
    73    52    53    2
    74    51    50    1
    75    51    54    1
    76   218   221   ar
    77   218   216   ar
    78    60    61    2
    79   205   204   ar
    80   180   181    2
    81   217   216   ar
    82    47    46    1
    83    71    70    1
    84    46    45    1
    85    72    70    1
    86   216   215    1
    87    54    55    1
    88   187   186    1
    89   187   188    1
    90   187   190    1
    91    62    63    1
    92    63    65    1
    93    63    64    1
    94   152   151    1
    95    57    55    1
    96   156   155    2
    97   191   190    1
    98   191   192    1
    99    55    56    1
   100    70    67    1
   101   204   203    1
   102   204   206   ar
   103   188   189    2
   104    66    67    1
   105    42    45    1
   106    42    43    1
   107    42    41    1
   108    43    44    2
   109   215   212    1
   110   150   151   ar
   111   150   148   ar
   112   203   200    1
   113   151   149   ar
   114    81    79   am
   115    67    68    1
   116   155   154    1
   117    80    79    2
   118   148   146   ar
   119   157   154    1
   120    79    78    1
   121   212   211    1
   122   212   213    1
   123   197   196    2
   124   154   153    1
   125   200   199    1
   126   200   201    1
   127   149   147   ar
   128   211   209   am
   129   202   201    2
   130    68    69    2
   131    40    37    1
   132   198   195    1
   133   196   199   am
   134   196   195    1
   135   153   143   am
   136   209   210    2
   137   209   208    1
   138   214   213    2
   139   194   195    1
   140   146   147   ar
   141   146   145    1
   142   208   207    1
   143    37    38    1
   144    37    36    1
   145   130   129    1
   146    78    77    1
   147   122   121    1
   148    38    39    2
   149    77    74    1
   150   143   142    1
   151   143   144    2
   152   145   142    1
   153   142   141    1
   154   115   113    1
   155    89    87    1
   156    88    87    1
   157   121   120    1
   158   121   123    1
   159    97    96   ar
   160   116   117    1
   161   120   117    1
   162   129   128    1
   163   129   131    1
   164   135   134    2
   165   114   113    1
   166    98    96   ar
   167    86    87    1
   168    86    83    1
   169   119   118    2
   170   128   125    1
   171    96    95    1
   172    74    73    1
   173    74    75    1
   174    82    75   am
   175    82    83    1
   176   113   112    1
   177   117   118    1
   178    75    76    2
   179   141   134   am
   180    83    84    1
   181   112   109    1
   182   134   133    1
   183   125   126    1
   184   125   124    1
   185   127   126    2
   186    95    94    1
   187   126   132   am
   188    94    91    1
   189   109   108    1
   190   109   110    1
   191   132   133    1
   192    84    85    2
   193   133   136    1
   194   136   137    1
   195   107   105   am
   196   137   138    1
   197   110   111    2
   198   139   138   ar
   199    91    90    1
   200    91    92    1
   201   138   140   ar
   202   105   104    1
   203   105   106    2
   204   104   103    1
   205    92    93    2
   206   103   100    1
   207   100    99    1
   208   100   101    1
   209   101   102    2
