@<TRIPOS>MOLECULE
tmp/3dj8A00.pdb
 143 131 0 0 0
SMALL
GASTEIGER

@<TRIPOS>ATOM
      1  N         20.0500  -32.8050    6.6650 N.3    96  HIS96      -0.1241
      2  CA        19.8280  -32.8020    5.2280 C.3    96  HIS96       0.1621
      3  C         18.6210  -33.5540    4.6940 C.2    96  HIS96       0.2264
      4  O         18.3540  -33.5030    3.4910 O.2    96  HIS96      -0.2867
      5  CB        21.0870  -33.3010    4.5220 C.3    96  HIS96       0.0745
      6  CG        21.4460  -32.5050    3.3090 C.ar   96  HIS96       0.0817
      7  ND1       22.6670  -32.6160    2.6800 N.ar   96  HIS96      -0.2268
      8  CD2       20.7450  -31.5800    2.6120 C.ar   96  HIS96       0.1154
      9  CE1       22.7020  -31.7930    1.6470 C.ar   96  HIS96       0.1986
     10  NE2       21.5480  -31.1540    1.5830 N.ar   96  HIS96      -0.2212
     11  N         28.6070  -31.7580   -0.7590 N.3   119  ASP119     -0.1239
     12  CA        28.5010  -32.6560    0.3820 C.3   119  ASP119      0.1674
     13  C         29.6720  -33.6450    0.3830 C.2   119  ASP119      0.2266
     14  O         30.2490  -33.9390   -0.6620 O.2   119  ASP119     -0.2867
     15  CB        27.1830  -33.4250    0.2160 C.3   119  ASP119      0.1410
     16  CG        26.6390  -33.9940    1.5150 C.2   119  ASP119      0.3668
     17  OD1       27.4250  -34.4650    2.3580 O.co2 119  ASP119     -0.2456
     18  OD2       25.3970  -33.9910    1.6640 O.co2 119  ASP119     -0.2456
     19  N         29.0840  -36.4870    1.3450 N.3   121  HIS121     -0.1241
     20  CA        28.2860  -37.6810    1.0510 C.3   121  HIS121      0.1621
     21  C         27.3010  -37.4570   -0.1010 C.2   121  HIS121      0.2264
     22  O         26.9750  -36.3250   -0.4440 O.2   121  HIS121     -0.2867
     23  CB        27.4980  -38.1050    2.2940 C.3   121  HIS121      0.0745
     24  CG        28.2820  -38.0160    3.5650 C.ar  121  HIS121      0.0817
     25  ND1       28.3930  -36.8480    4.2910 N.ar  121  HIS121     -0.2268
     26  CD2       29.0190  -38.9410    4.2220 C.ar  121  HIS121      0.1154
     27  CE1       29.1670  -37.0600    5.3410 C.ar  121  HIS121      0.1986
     28  NE2       29.5590  -38.3210    5.3210 N.ar  121  HIS121     -0.2212
     29  N         24.1770  -38.8680   -0.0790 N.3   123  ASP123     -0.1239
     30  CA        22.8350  -38.8630    0.5110 C.3   123  ASP123      0.1674
     31  C         21.8120  -39.4690   -0.4430 C.2   123  ASP123      0.2266
     32  O         20.6840  -38.9860   -0.5570 O.2   123  ASP123     -0.2867
     33  CB        22.3950  -37.4320    0.8420 C.3   123  ASP123      0.1410
     34  CG        23.2450  -36.7820    1.9190 C.2   123  ASP123      0.3668
     35  OD1       24.1000  -37.4730    2.5140 O.co2 123  ASP123     -0.2456
     36  OD2       23.0350  -35.5710    2.1670 O.co2 123  ASP123     -0.2456
     37  N         21.1050  -42.9740   -0.4580 N.3   125  ASN125     -0.1240
     38  CA        20.7600  -44.3280   -0.0320 C.3   125  ASN125      0.1653
     39  C         19.2410  -44.4700   -0.1290 C.2   125  ASN125      0.2266
     40  O         18.5090  -43.4850    0.0120 O.2   125  ASN125     -0.2867
     41  CB        21.1900  -44.5750    1.4250 C.3   125  ASN125      0.1155
     42  CG        22.5160  -45.3170    1.5350 C.2   125  ASN125      0.2627
     43  OD1       22.7000  -46.3800    0.9420 O.2   125  ASN125     -0.2716
     44  ND2       23.4390  -44.7590    2.3050 N.am  125  ASN125     -0.0877
     45  N         20.1920  -48.2990    2.7480 N.3   130  THR130     -0.1203
     46  CA        20.7480  -47.6590    3.9390 C.3   130  THR130      0.1994
     47  C         21.1140  -48.6960    5.0020 C.2   130  THR130      0.2619
     48  O         20.4140  -49.6890    5.1760 O.2   130  THR130     -0.2717
     49  CB        19.7460  -46.6500    4.5770 C.3   130  THR130      0.1784
     50  OG1       20.3200  -46.0730    5.7640 O.3   130  THR130     -0.2211
     51  CG2       18.4440  -47.3530    4.9540 C.3   130  THR130      0.0376
     52  N         22.2190  -48.4670    5.7040 N.am  131  THR131     -0.1938
     53  CA        22.6270  -49.3770    6.7720 C.3   131  THR131      0.2028
     54  C         22.3810  -48.7030    8.1270 C.2   131  THR131      0.2642
     55  O         22.1770  -49.3770    9.1430 O.2   131  THR131     -0.2714
     56  CB        24.1260  -49.7620    6.6730 C.3   131  THR131      0.1808
     57  OG1       24.3570  -50.5080    5.4700 O.3   131  THR131     -0.2208
     58  CG2       24.5290  -50.6180    7.8670 C.3   131  THR131      0.0379
     59  N         22.3890  -47.3720    8.1300 N.am  132  SER132     -0.1949
     60  CA        22.1870  -46.6010    9.3500 C.3   132  SER132      0.1924
     61  C         20.7090  -46.3180    9.6480 C.2   132  SER132      0.2314
     62  O         20.3160  -46.1970   10.8100 O.2   132  SER132     -0.2863
     63  CB        22.9450  -45.2680    9.2580 C.3   132  SER132      0.2116
     64  OG        22.2990  -44.3650    8.3770 O.3   132  SER132     -0.2180
     65  N         19.2520  -43.6160    8.9800 N.3   134  ASN134     -0.1240
     66  CA        19.0840  -42.1720    9.1330 C.3   134  ASN134      0.1653
     67  C         18.6670  -41.5750    7.8030 C.2   134  ASN134      0.2266
     68  O         19.3800  -41.7010    6.8070 O.2   134  ASN134     -0.2867
     69  CB        20.3830  -41.5270    9.6190 C.3   134  ASN134      0.1155
     70  CG        20.8620  -42.1120   10.9390 C.2   134  ASN134      0.2627
     71  OD1       20.0550  -42.4640   11.8010 O.2   134  ASN134     -0.2716
     72  ND2       22.1770  -42.2170   11.1040 N.am  134  ASN134     -0.0877
     73  N         18.6780  -38.5630    6.7350 N.3   136  HIS136     -0.1226
     74  CA        19.4630  -37.4630    6.1860 C.3   136  HIS136      0.1752
     75  C         20.4790  -37.9980    5.1720 C.2   136  HIS136      0.2596
     76  O         21.1480  -37.2350    4.4940 O.2   136  HIS136     -0.2718
     77  CB        20.1550  -36.6530    7.3000 C.3   136  HIS136      0.0759
     78  CG        21.3090  -37.3480    7.9640 C.ar  136  HIS136      0.0818
     79  ND1       22.2830  -36.6590    8.6600 N.ar  136  HIS136     -0.2268
     80  CD2       21.6450  -38.6590    8.0510 C.ar  136  HIS136      0.1154
     81  CE1       23.1680  -37.5140    9.1430 C.ar  136  HIS136      0.1986
     82  NE2       22.8040  -38.7350    8.7880 N.ar  136  HIS136     -0.2212
     83  N         20.5640  -39.3230    5.0570 N.am  137  GLY137     -0.1957
     84  CA        21.4760  -39.9460    4.1140 C.3   137  GLY137      0.1869
     85  C         20.7190  -40.6030    2.9680 C.2   137  GLY137      0.2309
     86  O         21.2730  -41.4040    2.2090 O.2   137  GLY137     -0.2863
     87  N         33.0120  -39.9140    1.1190 N.3   176  ASP176     -0.1239
     88  CA        32.5470  -41.0140    1.9720 C.3   176  ASP176      0.1674
     89  C         31.2100  -41.5110    1.4080 C.2   176  ASP176      0.2266
     90  O         30.1330  -41.1620    1.9080 O.2   176  ASP176     -0.2867
     91  CB        32.3730  -40.5510    3.4240 C.3   176  ASP176      0.1410
     92  CG        32.1520  -41.7080    4.3850 C.2   176  ASP176      0.3668
     93  OD1       31.9700  -42.8500    3.9130 O.co2 176  ASP176     -0.2456
     94  OD2       32.1560  -41.4770    5.6140 O.co2 176  ASP176     -0.2456
     95  N         28.7860  -44.7790    0.3110 N.3   178  ASP178     -0.1239
     96  CA        28.5250  -46.1870    0.6000 C.3   178  ASP178      0.1674
     97  C         28.5320  -46.9940   -0.7040 C.2   178  ASP178      0.2266
     98  O         28.3640  -46.4340   -1.7950 O.2   178  ASP178     -0.2867
     99  CB        27.1680  -46.3440    1.3140 C.3   178  ASP178      0.1410
    100  CG        27.1420  -45.6680    2.6850 C.2   178  ASP178      0.3668
    101  OD1       28.2300  -45.4870    3.2790 O.co2 178  ASP178     -0.2456
    102  OD2       26.0360  -45.3330    3.1790 O.co2 178  ASP178     -0.2456
    103  N         25.3330  -46.8110   -2.7690 N.3   181  GLU181     -0.1245
    104  CA        25.2540  -45.4570   -3.3000 C.3   181  GLU181      0.1567
    105  C         26.1370  -45.3340   -4.5450 C.2   181  GLU181      0.2260
    106  O         25.7160  -44.7890   -5.5630 O.2   181  GLU181     -0.2867
    107  CB        25.7050  -44.4470   -2.2450 C.3   181  GLU181      0.0388
    108  CG        24.6870  -44.1950   -1.1470 C.3   181  GLU181      0.1160
    109  CD        25.1290  -43.1050   -0.1910 C.2   181  GLU181      0.3649
    110  OE1       26.1260  -43.3190    0.5290 O.co2 181  GLU181     -0.2457
    111  OE2       24.4900  -42.0340   -0.1600 O.co2 181  GLU181     -0.2457
    112  N         25.6420  -28.8840    2.1590 N.3   227  ASP227     -0.1239
    113  CA        25.8220  -29.5970    3.4190 C.3   227  ASP227      0.1674
    114  C         27.1640  -29.0700    3.9000 C.2   227  ASP227      0.2266
    115  O         28.1750  -29.2460    3.2160 O.2   227  ASP227     -0.2867
    116  CB        25.9150  -31.1020    3.1690 C.3   227  ASP227      0.1410
    117  CG        26.0760  -31.9100    4.4460 C.2   227  ASP227      0.3668
    118  OD1       26.5030  -31.3470    5.4740 O.co2 227  ASP227     -0.2456
    119  OD2       25.7910  -33.1260    4.4160 O.co2 227  ASP227     -0.2456
    120  N         29.2130  -30.1760    5.8820 N.3   229  ASP229     -0.1239
    121  CA        30.2500  -31.1790    6.0990 C.3   229  ASP229      0.1674
    122  C         30.9560  -31.5010    4.7850 C.2   229  ASP229      0.2266
    123  O         31.7860  -32.4050    4.7150 O.2   229  ASP229     -0.2867
    124  CB        29.6880  -32.4510    6.7680 C.3   229  ASP229      0.1410
    125  CG        28.8810  -33.3350    5.8310 C.2   229  ASP229      0.3668
    126  OD1       28.1370  -34.1850    6.3690 O.co2 229  ASP229     -0.2456
    127  OD2       28.9880  -33.2190    4.5880 O.co2 229  ASP229     -0.2456
    128  N         28.4410  -35.5610   10.8510 N.3   241  THR241     -0.1218
    129  CA        29.2340  -36.5750   10.1630 C.3   241  THR241      0.1862
    130  C         30.4280  -35.9920    9.4150 C.2   241  THR241      0.2287
    131  O         30.4650  -36.0040    8.1800 O.2   241  THR241     -0.2866
    132  CB        28.3470  -37.3570    9.1660 C.3   241  THR241      0.1770
    133  OG1       27.6800  -36.4400    8.2940 O.3   241  THR241     -0.2211
    134  CG2       27.2950  -38.1630    9.9080 C.3   241  THR241      0.0375
    135  N         23.0870  -29.0840    8.0790 N.3   272  GLU272     -0.1245
    136  CA        23.9200  -29.8500    8.9990 C.3   272  GLU272      0.1567
    137  C         24.7970  -29.1120   10.0110 C.2   272  GLU272      0.2260
    138  O         25.7340  -29.6950   10.5590 O.2   272  GLU272     -0.2867
    139  CB        24.7700  -30.8520    8.1980 C.3   272  GLU272      0.0388
    140  CG        23.9550  -31.8910    7.4040 C.3   272  GLU272      0.1160
    141  CD        23.2100  -32.8850    8.2900 C.2   272  GLU272      0.3649
    142  OE1       23.4130  -32.8730    9.5200 O.co2 272  GLU272     -0.2457
    143  OE2       22.4190  -33.6900    7.7530 O.co2 272  GLU272     -0.2457
@<TRIPOS>BOND
     1   106   105    2
     2   105   104    1
     3   104   103    1
     4   104   107    1
     5   107   108    1
     6    98    97    2
     7   108   109    1
     8    11    12    1
     9    97    96    1
    10    14    13    2
    11    32    31    2
    12    37    38    1
    13    22    21    2
    14    31    30    1
    15   109   111   ar
    16   109   110   ar
    17    39    38    1
    18    39    40    2
    19    21    20    1
    20    29    30    1
    21    38    41    1
    22    15    12    1
    23    15    16    1
    24    95    96    1
    25    12    13    1
    26    30    33    1
    27    96    99    1
    28    33    34    1
    29    43    42    2
    30    20    19    1
    31    20    23    1
    32    87    88    1
    33    99   100    1
    34    89    90    2
    35    89    88    1
    36    41    42    1
    37    16    18   ar
    38    16    17   ar
    39    42    44   am
    40    10     9   ar
    41    10     8   ar
    42     9     7   ar
    43    34    36   ar
    44    34    35   ar
    45    88    91    1
    46   112   113    1
    47    86    85    2
    48    23    24    1
    49     8     6   ar
    50     7     6   ar
    51   100   102   ar
    52   100   101   ar
    53    45    46    1
    54    85    84    1
    55   116   113    1
    56   116   117    1
    57   115   114    2
    58     6     5    1
    59   113   114    1
    60    91    92    1
    61     4     3    2
    62    24    26   ar
    63    24    25   ar
    64    93    92   ar
    65    46    49    1
    66    46    47    1
    67    84    83    1
    68    26    28   ar
    69    25    27   ar
    70    92    94   ar
    71   119   117   ar
    72   117   118   ar
    73    76    75    2
    74     5     2    1
    75    49    51    1
    76    49    50    1
    77   127   125   ar
    78     3     2    1
    79   123   122    2
    80   122   121    1
    81    47    48    2
    82    47    52   am
    83    83    75   am
    84    75    74    1
    85     2     1    1
    86    28    27   ar
    87    57    56    1
    88    52    53    1
    89   125   126   ar
    90   125   124    1
    91   120   121    1
    92   121   124    1
    93    74    73    1
    94    74    77    1
    95    56    53    1
    96    56    58    1
    97    53    54    1
    98    68    67    2
    99    77    78    1
   100   140   139    1
   101   140   141    1
   102   143   141   ar
   103    67    66    1
   104    78    80   ar
   105    78    79   ar
   106    80    82   ar
   107   135   136    1
   108    54    59   am
   109    54    55    2
   110    59    60    1
   111   131   130    2
   112   139   136    1
   113   141   142   ar
   114   133   132    1
   115    64    63    1
   116    79    81   ar
   117    82    81   ar
   118    65    66    1
   119   136   137    1
   120    66    69    1
   121   132   134    1
   122   132   129    1
   123    63    60    1
   124    60    61    1
   125   130   129    1
   126    69    70    1
   127    61    62    2
   128   137   138    2
   129   129   128    1
   130    70    72   am
   131    70    71    2
