@<TRIPOS>MOLECULE
tmp/3djeB01.pdb
 133 125 0 0 0
SMALL
GASTEIGER

@<TRIPOS>ATOM
      1  N         66.3650   -8.6680    1.9860 N.3    53  VAL53      -0.1245
      2  CA        67.1050   -8.5520    0.7400 C.3    53  VAL53       0.1561
      3  C         68.3020   -9.5030    0.7480 C.2    53  VAL53       0.2260
      4  O         69.0540   -9.5900    1.7370 O.2    53  VAL53      -0.2867
      5  CB        67.6260   -7.0990    0.5130 C.3    53  VAL53       0.0252
      6  CG1       68.3010   -6.9660   -0.8610 C.3    53  VAL53       0.0019
      7  CG2       66.5040   -6.0870    0.6530 C.3    53  VAL53       0.0019
      8  N         71.6010   -9.9800   -1.4680 N.3    55  SER55      -0.1217
      9  CA        72.4150   -9.3280   -2.4810 C.3    55  SER55       0.1889
     10  C         73.9000   -9.3740   -2.1220 C.2    55  SER55       0.2288
     11  O         74.2620   -9.6280   -0.9610 O.2    55  SER55      -0.2866
     12  CB        71.9540   -7.8820   -2.6580 C.3    55  SER55       0.2089
     13  OG        72.7870   -6.9800   -1.9550 O.3    55  SER55      -0.2183
     14  N         80.1590   -2.8780    1.6250 N.3    59  TYR59      -0.1241
     15  CA        80.0090   -1.8550    2.6680 C.3    59  TYR59       0.1605
     16  C         81.2720   -1.0370    2.8970 C.2    59  TYR59       0.2264
     17  O         81.2670   -0.0760    3.6600 O.2    59  TYR59      -0.2867
     18  CB        79.4840   -2.5040    3.9630 C.3    59  TYR59       0.0534
     19  CG        78.0610   -2.9310    3.7520 C.ar   59  TYR59      -0.0201
     20  CD1       77.0140   -2.0660    4.0880 C.ar   59  TYR59      -0.0009
     21  CD2       77.7480   -4.1490    3.1400 C.ar   59  TYR59      -0.0009
     22  CE1       75.6980   -2.4050    3.8500 C.ar   59  TYR59       0.0417
     23  CE2       76.4180   -4.4990    2.8990 C.ar   59  TYR59       0.0417
     24  CZ        75.4050   -3.6120    3.2620 C.ar   59  TYR59       0.1957
     25  OH        74.0830   -3.9190    3.0360 O.3    59  TYR59      -0.2866
     26  N         78.4040    0.5920   -2.5340 N.3   110  ARG110     -0.1245
     27  CA        77.4840   -0.5310   -2.3350 C.3   110  ARG110      0.1563
     28  C         77.2710   -1.4000   -3.5610 C.2   110  ARG110      0.2260
     29  O         77.3180   -2.6290   -3.4690 O.2   110  ARG110     -0.2867
     30  CB        76.1680   -0.0400   -1.7430 C.3   110  ARG110      0.0307
     31  CG        76.4330    0.4830   -0.3380 C.3   110  ARG110      0.0489
     32  CD        75.1950    0.7230    0.4620 C.3   110  ARG110      0.2205
     33  NE        74.3020   -0.4390    0.5760 N.pl3 110  ARG110     -0.0865
     34  CZ        73.2090   -0.4180    1.3280 C.cat 110  ARG110      0.5346
     35  NH1       72.9280    0.6680    2.0260 N.pl3 110  ARG110      0.1354
     36  NH2       72.3990   -1.4610    1.3820 N.pl3 110  ARG110      0.1354
     37  N         66.0270   -0.6670   13.7790 N.3   233  TRP233     -0.1241
     38  CA        65.3560   -0.1450   12.5960 C.3   233  TRP233      0.1605
     39  C         63.8540   -0.4220   12.6970 C.2   233  TRP233      0.2264
     40  O         63.3760   -1.0700   13.6400 O.2   233  TRP233     -0.2867
     41  CB        66.0180   -0.6610   11.2810 C.3   233  TRP233      0.0550
     42  CG        67.3370    0.0550   11.1290 C.ar  233  TRP233      0.0003
     43  CD1       67.5530    1.2320   10.4530 C.ar  233  TRP233      0.0946
     44  CD2       68.5910   -0.2980   11.7420 C.ar  233  TRP233      0.0152
     45  NE1       68.8600    1.6350   10.6160 N.ar  233  TRP233     -0.2442
     46  CE2       69.5220    0.7150   11.3960 C.ar  233  TRP233      0.0810
     47  CE3       69.0200   -1.3790   12.5300 C.ar  233  TRP233      0.0012
     48  CZ2       70.8660    0.6810   11.8170 C.ar  233  TRP233      0.0191
     49  CZ3       70.3790   -1.4080   12.9620 C.ar  233  TRP233      0.0001
     50  CH2       71.2750   -0.3820   12.5890 C.ar  233  TRP233      0.0015
     51  N         64.7340   -0.2280   -3.6610 N.3   255  PHE255     -0.1241
     52  CA        65.5430    0.1690   -2.5050 C.3   255  PHE255      0.1605
     53  C         66.2100    1.5110   -2.7960 C.2   255  PHE255      0.2264
     54  O         66.9420    1.6360   -3.7720 O.2   255  PHE255     -0.2867
     55  CB        66.6060   -0.9100   -2.2880 C.3   255  PHE255      0.0534
     56  CG        67.1770   -0.9830   -0.8910 C.ar  255  PHE255     -0.0203
     57  CD1       67.0990   -2.1840   -0.1970 C.ar  255  PHE255     -0.0042
     58  CD2       67.8460    0.0830   -0.3080 C.ar  255  PHE255     -0.0042
     59  CE1       67.6400   -2.3160    1.0790 C.ar  255  PHE255     -0.0003
     60  CE2       68.4030   -0.0380    0.9970 C.ar  255  PHE255     -0.0003
     61  CZ        68.2930   -1.2490    1.6780 C.ar  255  PHE255     -0.0000
     62  N         62.7450    1.0720    1.4800 N.3   261  PHE261     -0.1241
     63  CA        62.6220   -0.0180    0.5360 C.3   261  PHE261      0.1605
     64  C         61.3640   -0.8130    0.7940 C.2   261  PHE261      0.2264
     65  O         60.7610   -0.7280    1.8710 O.2   261  PHE261     -0.2867
     66  CB        63.8630   -0.9320    0.5580 C.3   261  PHE261      0.0534
     67  CG        64.1830   -1.5440    1.9030 C.ar  261  PHE261     -0.0203
     68  CD1       63.6660   -2.7900    2.2580 C.ar  261  PHE261     -0.0042
     69  CD2       65.0420   -0.8910    2.7880 C.ar  261  PHE261     -0.0042
     70  CE1       64.0080   -3.3740    3.5090 C.ar  261  PHE261     -0.0003
     71  CE2       65.3720   -1.4510    4.0190 C.ar  261  PHE261     -0.0003
     72  CZ        64.8600   -2.6970    4.3790 C.ar  261  PHE261     -0.0000
     73  N         60.2280   -0.5110    4.7600 N.3   275  CYS275     -0.1235
     74  CA        61.1350    0.0430    5.7610 C.3   275  CYS275      0.1677
     75  C         61.5290    1.4610    5.3600 C.2   275  CYS275      0.2270
     76  O         61.8820    1.6910    4.2020 O.2   275  CYS275     -0.2867
     77  CB        62.4090   -0.7870    5.8540 C.3   275  CYS275      0.0956
     78  SG        62.1950   -2.4150    6.6080 S.3   275  CYS275     -0.0801
     79  N         64.3810    4.1250    5.5740 N.3   277  GLU277     -0.1245
     80  CA        65.8170    4.0920    5.8150 C.3   277  GLU277      0.1567
     81  C         66.2780    5.2690    6.6850 C.2   277  GLU277      0.2260
     82  O         65.8500    6.3970    6.5130 O.2   277  GLU277     -0.2867
     83  CB        66.6130    4.0190    4.5050 C.3   277  GLU277      0.0388
     84  CG        68.1400    3.8660    4.6980 C.3   277  GLU277      0.1160
     85  CD        68.5810    2.5830    5.4340 C.2   277  GLU277      0.3649
     86  OE1       67.7580    1.6440    5.6140 O.co2 277  GLU277     -0.2457
     87  OE2       69.7730    2.5220    5.8330 O.co2 277  GLU277     -0.2457
     88  N         81.2990   -2.1160   10.9790 N.3   336  ARG336     -0.1245
     89  CA        80.2580   -2.9970   10.4420 C.3   336  ARG336      0.1563
     90  C         80.8090   -4.3050    9.8430 C.2   336  ARG336      0.2260
     91  O         80.1890   -4.9010    8.9510 O.2   336  ARG336     -0.2867
     92  CB        79.3200   -2.2540    9.4810 C.3   336  ARG336      0.0307
     93  CG        78.4290   -1.2600   10.2500 C.3   336  ARG336      0.0489
     94  CD        77.4490   -0.6110    9.3420 C.3   336  ARG336      0.2205
     95  NE        76.4350   -1.5540    8.8790 N.pl3 336  ARG336     -0.0865
     96  CZ        75.6350   -1.3200    7.8520 C.cat 336  ARG336      0.5346
     97  NH1       75.7700   -0.1750    7.1710 N.pl3 336  ARG336      0.1354
     98  NH2       74.7210   -2.2130    7.5060 N.pl3 336  ARG336      0.1354
     99  N         73.5430   -5.1550   11.1770 N.3   357  GLY357     -0.1210
    100  CA        72.3600   -4.8000   10.3730 C.3   357  GLY357      0.1956
    101  C         72.4130   -5.2960    8.9450 C.2   357  GLY357      0.2611
    102  O         71.7560   -4.7470    8.0640 O.2   357  GLY357     -0.2717
    103  N         73.1750   -6.3620    8.7050 N.am  358  ARG358     -0.1979
    104  CA        73.3080   -6.8870    7.3450 C.3   358  ARG358      0.1597
    105  C         73.4930   -8.4020    7.3230 C.2   358  ARG358      0.2287
    106  O         73.9640   -8.9570    6.3320 O.2   358  ARG358     -0.2864
    107  CB        74.4340   -6.1600    6.5860 C.3   358  ARG358      0.0334
    108  CG        75.8350   -6.3900    7.1340 C.3   358  ARG358      0.0492
    109  CD        76.8260   -5.4240    6.4720 C.3   358  ARG358      0.2205
    110  NE        78.2330   -5.6700    6.8180 N.pl3 358  ARG358     -0.0865
    111  CZ        79.0270   -6.5260    6.1670 C.cat 358  ARG358      0.5346
    112  NH1       78.5600   -7.2330    5.1390 N.pl3 358  ARG358      0.1354
    113  NH2       80.2970   -6.6750    6.5420 N.pl3 358  ARG358      0.1354
    114  N         71.1940  -12.4660    5.3400 N.3   361  LYS361     -0.1245
    115  CA        71.4600  -13.1790    4.0920 C.3   361  LYS361      0.1561
    116  C         72.4510  -14.3320    4.2580 C.2   361  LYS361      0.2260
    117  O         72.4950  -15.2300    3.4130 O.2   361  LYS361     -0.2867
    118  CB        71.9330  -12.1940    3.0070 C.3   361  LYS361      0.0271
    119  CG        73.2600  -11.5300    3.3240 C.3   361  LYS361      0.0035
    120  CD        73.6400  -10.4660    2.2750 C.3   361  LYS361      0.0206
    121  CE        72.7860   -9.1900    2.3530 C.3   361  LYS361      0.1093
    122  NZ        73.0180   -8.4340    3.6310 N.3   361  LYS361     -0.1314
    123  N         75.2680    4.9020    6.7410 N.3   403  ARG403     -0.1245
    124  CA        73.8210    4.9110    6.5610 C.3   403  ARG403      0.1563
    125  C         73.3090    6.3360    6.3950 C.2   403  ARG403      0.2260
    126  O         73.8940    7.2900    6.9370 O.2   403  ARG403     -0.2867
    127  CB        73.1310    4.2390    7.7480 C.3   403  ARG403      0.0307
    128  CG        73.4880    2.7680    7.9070 C.3   403  ARG403      0.0489
    129  CD        72.6340    2.1820    9.0070 C.3   403  ARG403      0.2205
    130  NE        72.8150    0.7420    9.2220 N.pl3 403  ARG403     -0.0865
    131  CZ        73.5440    0.1990   10.2040 C.cat 403  ARG403      0.5346
    132  NH1       74.2300    0.9490   11.0500 N.pl3 403  ARG403      0.1354
    133  NH2       73.5900   -1.1250   10.3480 N.pl3 403  ARG403      0.1354
@<TRIPOS>BOND
     1    54    53    2
     2    51    52    1
     3    28    29    2
     4    28    27    1
     5    53    52    1
     6    12     9    1
     7    12    13    1
     8    26    27    1
     9    52    55    1
    10     9    10    1
    11     9     8    1
    12    27    30    1
    13    55    56    1
    14    10    11    2
    15    30    31    1
    16    56    58   ar
    17    56    57   ar
    18     6     5    1
    19    31    32    1
    20    58    60   ar
    21    57    59   ar
    22    32    33    1
    23     5     7    1
    24     5     2    1
    25    63    66    1
    26    63    64    1
    27    63    62    1
    28    66    67    1
    29    33    34    2
    30     2     3    1
    31     2     1    1
    32     3     4    2
    33    64    65    2
    34    60    61   ar
    35    59    61   ar
    36    34    36    1
    37    34    35    1
    38    14    15    1
    39    67    68   ar
    40    67    69   ar
    41    68    70   ar
    42   120   121    1
    43   120   119    1
    44   121   122    1
    45    15    16    1
    46    15    18    1
    47    69    71   ar
    48    16    17    2
    49    23    21   ar
    50    23    24   ar
    51   118   119    1
    52   118   115    1
    53    25    24    1
    54    21    19   ar
    55    24    22   ar
    56   117   116    2
    57    70    72   ar
    58    19    18    1
    59    19    20   ar
    60    22    20   ar
    61    71    72   ar
    62   115   116    1
    63   115   114    1
    64    76    75    2
    65    83    84    1
    66    83    80    1
    67    84    85    1
    68    73    74    1
    69   112   111    1
    70    75    74    1
    71    85    86   ar
    72    85    87   ar
    73    79    80    1
    74    74    77    1
    75    80    81    1
    76    77    78    1
    77   111   113    1
    78   111   110    2
    79   106   105    2
    80   125   124    1
    81   125   126    2
    82   109   110    1
    83   109   108    1
    84    82    81    2
    85   124   123    1
    86   124   127    1
    87   107   108    1
    88   107   104    1
    89    97    96    1
    90   105   104    1
    91   104   103    1
    92    98    96    1
    93   127   128    1
    94    96    95    2
    95   128   129    1
    96   102   101    2
    97   103   101   am
    98    95    94    1
    99   101   100    1
   100    91    90    2
   101   129   130    1
   102   130   131    2
   103    94    93    1
   104    92    93    1
   105    92    89    1
   106    90    89    1
   107   131   133    1
   108   131   132    1
   109   100    99    1
   110    89    88    1
   111    43    45   ar
   112    43    42   ar
   113    45    46   ar
   114    42    41    1
   115    42    44   ar
   116    41    38    1
   117    46    44   ar
   118    46    48   ar
   119    44    47   ar
   120    48    50   ar
   121    47    49   ar
   122    50    49   ar
   123    38    39    1
   124    38    37    1
   125    39    40    2
