@<TRIPOS>MOLECULE
tmp/3djfA00.pdb
 135 129 0 0 0
SMALL
GASTEIGER

@<TRIPOS>ATOM
      1  N         -6.7920   -7.4190   25.0030 N.3    81  HIS81      -0.1241
      2  CA        -7.9950   -7.0120   24.2870 C.3    81  HIS81       0.1621
      3  C         -7.6580   -6.4690   22.9020 C.2    81  HIS81       0.2264
      4  O         -6.6760   -5.7470   22.7260 O.2    81  HIS81      -0.2867
      5  CB        -8.7820   -5.9770   25.0890 C.3    81  HIS81       0.0745
      6  CG        -9.3680   -6.5130   26.3540 C.ar   81  HIS81       0.0817
      7  ND1       -9.1760   -5.9100   27.5770 N.ar   81  HIS81      -0.2268
      8  CD2      -10.1200   -7.6140   26.5920 C.ar   81  HIS81       0.1154
      9  CE1       -9.7990   -6.6030   28.5120 C.ar   81  HIS81       0.1986
     10  NE2      -10.3800   -7.6430   27.9400 N.ar   81  HIS81      -0.2212
     11  N         -9.0590   -4.2010   21.0400 N.3    83  TYR83      -0.1241
     12  CA        -9.0680   -2.7450   20.9050 C.3    83  TYR83       0.1605
     13  C         -7.7260   -2.1210   21.3180 C.2    83  TYR83       0.2264
     14  O         -7.4480   -0.9780   20.9610 O.2    83  TYR83      -0.2867
     15  CB       -10.2290   -2.0960   21.6860 C.3    83  TYR83       0.0534
     16  CG       -10.2060   -2.3910   23.1680 C.ar   83  TYR83      -0.0201
     17  CD1       -9.2870   -1.7710   24.0060 C.ar   83  TYR83      -0.0009
     18  CD2      -11.0900   -3.3120   23.7290 C.ar   83  TYR83      -0.0009
     19  CE1       -9.2470   -2.0510   25.3510 C.ar   83  TYR83       0.0417
     20  CE2      -11.0600   -3.6010   25.0810 C.ar   83  TYR83       0.0417
     21  CZ       -10.1320   -2.9650   25.8840 C.ar   83  TYR83       0.1957
     22  OH       -10.0860   -3.2280   27.2290 O.3    83  TYR83      -0.2866
     23  N        -17.3390   -8.2100   32.1160 N.3   111  ALA111     -0.1231
     24  CA       -18.3890   -7.2340   32.3720 C.3   111  ALA111      0.1694
     25  C        -19.0810   -6.9100   31.0540 C.2   111  ALA111      0.2592
     26  O        -18.4240   -6.8170   30.0020 O.2   111  ALA111     -0.2718
     27  CB       -17.8010   -5.9510   32.9960 C.3   111  ALA111      0.0304
     28  N        -20.3970   -6.7130   31.1010 N.am  112  ALA112     -0.1966
     29  CA       -21.1380   -6.4060   29.8790 C.3   112  ALA112      0.1728
     30  C        -22.3150   -5.4800   30.1250 C.2   112  ALA112      0.2616
     31  O        -22.7930   -5.3520   31.2490 O.2   112  ALA112     -0.2715
     32  CB       -21.6200   -7.7000   29.2150 C.3   112  ALA112      0.0334
     33  N        -22.7940   -4.8530   29.0570 N.am  113  GLY113     -0.1955
     34  CA       -23.9780   -4.0220   29.1370 C.3   113  GLY113      0.1869
     35  C        -25.1890   -4.8970   28.9130 C.2   113  GLY113      0.2309
     36  O        -25.1410   -5.8460   28.1310 O.2   113  GLY113     -0.2863
     37  N        -18.6370   -6.2570   20.5670 N.3   190  ASN190     -0.1240
     38  CA       -18.3080   -5.0140   19.8840 C.3   190  ASN190      0.1653
     39  C        -16.7910   -4.8500   19.9590 C.2   190  ASN190      0.2266
     40  O        -16.2240   -4.9070   21.0440 O.2   190  ASN190     -0.2867
     41  CB       -19.0300   -3.8380   20.5570 C.3   190  ASN190      0.1155
     42  CG       -18.5320   -2.4780   20.0800 C.2   190  ASN190      0.2627
     43  OD1      -17.7290   -2.3750   19.1490 O.2   190  ASN190     -0.2716
     44  ND2      -19.0160   -1.4290   20.7190 N.am  190  ASN190     -0.0877
     45  N        -15.1280    2.0500   22.0280 N.3   194  CYS194     -0.1221
     46  CA       -16.2840    2.8750   22.3850 C.3   194  CYS194      0.1808
     47  C        -17.4600    2.0780   22.9250 C.2   194  CYS194      0.2601
     48  O        -17.7310    0.9570   22.4750 O.2   194  CYS194     -0.2717
     49  CB       -16.7720    3.6840   21.1810 C.3   194  CYS194      0.0970
     50  SG       -15.5690    4.8580   20.5850 S.3   194  CYS194     -0.0800
     51  N        -18.1710    2.6690   23.8830 N.am  195  TYR195     -0.1962
     52  CA       -19.5000    2.1760   24.2410 C.3   195  TYR195      0.1771
     53  C        -20.4700    2.3690   23.0700 C.2   195  TYR195      0.2619
     54  O        -20.2670    3.2330   22.2140 O.2   195  TYR195     -0.2715
     55  CB       -20.0380    2.8790   25.4890 C.3   195  TYR195      0.0574
     56  CG       -19.3380    2.4680   26.7590 C.ar  195  TYR195     -0.0198
     57  CD1      -18.3320    3.2560   27.3070 C.ar  195  TYR195     -0.0009
     58  CD2      -19.6660    1.2850   27.4050 C.ar  195  TYR195     -0.0009
     59  CE1      -17.6740    2.8800   28.4720 C.ar  195  TYR195      0.0417
     60  CE2      -19.0090    0.8930   28.5690 C.ar  195  TYR195      0.0417
     61  CZ       -18.0150    1.6970   29.0970 C.ar  195  TYR195      0.1957
     62  OH       -17.3670    1.3130   30.2480 O.3   195  TYR195     -0.2866
     63  N        -21.5200    1.5550   23.0400 N.am  196  GLU196     -0.1977
     64  CA       -22.5020    1.5960   21.9520 C.3   196  GLU196      0.1602
     65  C        -23.3540    2.8610   22.0310 C.2   196  GLU196      0.2287
     66  O        -23.6670    3.3340   23.1150 O.2   196  GLU196     -0.2864
     67  CB       -23.4400    0.3770   22.0200 C.3   196  GLU196      0.0415
     68  CG       -22.7950   -0.9870   21.7990 C.3   196  GLU196      0.1163
     69  CD       -21.8650   -1.3510   22.9160 C.2   196  GLU196      0.3649
     70  OE1      -22.1800   -0.9870   24.0730 O.co2 196  GLU196     -0.2457
     71  OE2      -20.8280   -1.9820   22.6330 O.co2 196  GLU196     -0.2457
     72  N        -23.7620   -7.1660   25.8170 N.3   212  VAL212     -0.1231
     73  CA       -22.7420   -6.6840   24.8780 C.3   212  VAL212      0.1692
     74  C        -21.4490   -6.2680   25.5970 C.2   212  VAL212      0.2593
     75  O        -21.4820   -5.6340   26.6570 O.2   212  VAL212     -0.2718
     76  CB       -23.2600   -5.5110   24.0250 C.3   212  VAL212      0.0266
     77  CG1      -23.6800   -4.3370   24.9300 C.3   212  VAL212      0.0020
     78  CG2      -22.1980   -5.0730   23.0490 C.3   212  VAL212      0.0020
     79  N        -20.3160   -6.6360   25.0090 N.am  213  GLY213     -0.1942
     80  CA       -19.0100   -6.4130   25.6050 C.3   213  GLY213      0.2014
     81  C        -17.9470   -6.3530   24.5160 C.2   213  GLY213      0.2638
     82  O        -18.2730   -6.3380   23.3200 O.2   213  GLY213     -0.2714
     83  N        -16.6800   -6.3170   24.9190 N.am  214  MET214     -0.1976
     84  CA       -15.5920   -6.0810   23.9730 C.3   214  MET214      0.1605
     85  C        -14.5390   -7.1640   24.0180 C.2   214  MET214      0.2287
     86  O        -13.4360   -6.9530   23.5230 O.2   214  MET214     -0.2864
     87  CB       -14.9120   -4.7280   24.2520 C.3   214  MET214      0.0413
     88  CG       -15.8150   -3.5140   24.0790 C.3   214  MET214      0.0598
     89  SD       -15.0940   -1.9630   24.7240 S.3   214  MET214     -0.1393
     90  CE       -14.4960   -2.5150   26.3210 C.3   214  MET214      0.0692
     91  N        -22.9250   -4.9250   34.3200 N.3   237  THR237     -0.1203
     92  CA       -22.4000   -3.7840   35.0570 C.3   237  THR237      0.1994
     93  C        -23.1030   -2.4810   34.7020 C.2   237  THR237      0.2617
     94  O        -22.7910   -1.4390   35.2610 O.2   237  THR237     -0.2717
     95  CB       -20.9060   -3.6090   34.8100 C.3   237  THR237      0.1784
     96  OG1      -20.6730   -3.4440   33.4070 O.3   237  THR237     -0.2211
     97  CG2      -20.1630   -4.8220   35.2900 C.3   237  THR237      0.0376
     98  N        -24.0450   -2.5480   33.7660 N.am  238  ASN238     -0.1974
     99  CA       -24.8250   -1.3730   33.3710 C.3   238  ASN238      0.1688
    100  C        -25.9860   -1.7730   32.4720 C.2   238  ASN238      0.2292
    101  O        -25.9190   -2.7950   31.7910 O.2   238  ASN238     -0.2864
    102  CB       -23.9500   -0.3550   32.6400 C.3   238  ASN238      0.1181
    103  CG       -23.2220   -0.9580   31.4440 C.2   238  ASN238      0.2629
    104  OD1      -22.3750   -1.8370   31.5910 O.2   238  ASN238     -0.2716
    105  ND2      -23.5480   -0.4710   30.2550 N.am  238  ASN238     -0.0877
    106  N        -27.9660   -1.0270   29.1730 N.3   240  SER240     -0.1217
    107  CA       -27.8060   -0.3260   27.9040 C.3   240  SER240      0.1889
    108  C        -28.9110    0.6910   27.6810 C.2   240  SER240      0.2288
    109  O        -30.0900    0.3910   27.8910 O.2   240  SER240     -0.2866
    110  CB       -27.7970   -1.3250   26.7470 C.3   240  SER240      0.2089
    111  OG       -26.6420   -2.1320   26.8050 O.3   240  SER240     -0.2183
    112  N        -23.3890    5.3330   29.8720 N.3   250  PRO250     -0.2116
    113  CA       -22.4150    4.3700   30.3940 C.3   250  PRO250      0.1372
    114  C        -21.2670    5.1170   31.0600 C.2   250  PRO250      0.2244
    115  O        -20.6930    6.0270   30.4690 O.2   250  PRO250     -0.2868
    116  CB       -21.9030    3.6540   29.1350 C.3   250  PRO250      0.0268
    117  CG       -22.7990    4.0940   28.0140 C.3   250  PRO250      0.0207
    118  CD       -23.3860    5.3990   28.4020 C.3   250  PRO250      0.0892
    119  N        -17.5910    4.3690   33.0130 N.3   252  HIS252     -0.1241
    120  CA       -16.5880    3.3320   33.2920 C.3   252  HIS252      0.1621
    121  C        -16.2860    3.1690   34.7890 C.2   252  HIS252      0.2264
    122  O        -15.9450    2.0740   35.2530 O.2   252  HIS252     -0.2867
    123  CB       -15.3060    3.5790   32.4770 C.3   252  HIS252      0.0745
    124  CG       -14.1950    2.6090   32.7600 C.ar  252  HIS252      0.0817
    125  ND1      -14.2590    1.2690   32.4280 N.ar  252  HIS252     -0.2268
    126  CD2      -12.9780    2.7950   33.3270 C.ar  252  HIS252      0.1154
    127  CE1      -13.1370    0.6710   32.7920 C.ar  252  HIS252      0.1986
    128  NE2      -12.3410    1.5760   33.3340 N.ar  252  HIS252     -0.2212
    129  N        -19.0610    1.0960   36.0750 N.3   255  VAL255     -0.1245
    130  CA       -18.8230   -0.2500   35.6030 C.3   255  VAL255      0.1561
    131  C        -17.8430   -0.9390   36.5410 C.2   255  VAL255      0.2260
    132  O        -18.1110   -2.0340   37.0210 O.2   255  VAL255     -0.2867
    133  CB       -18.3360   -0.2570   34.1330 C.3   255  VAL255      0.0252
    134  CG1      -17.7790   -1.6380   33.7240 C.3   255  VAL255      0.0019
    135  CG2      -19.4860    0.1480   33.2290 C.3   255  VAL255      0.0019
@<TRIPOS>BOND
     1    43    42    2
     2    38    39    1
     3    38    41    1
     4    38    37    1
     5    39    40    2
     6    42    41    1
     7    42    44   am
     8    50    49    1
     9    12    11    1
    10    12    13    1
    11    12    15    1
    12    14    13    2
    13    49    46    1
    14    15    16    1
    15    68    67    1
    16    68    69    1
    17    64    67    1
    18    64    65    1
    19    64    63    1
    20    45    46    1
    21    65    66    2
    22    54    53    2
    23    46    47    1
    24    48    47    2
    25    71    69   ar
    26     4     3    2
    27     3     2    1
    28    69    70   ar
    29    47    51   am
    30    63    53   am
    31    78    76    1
    32    53    52    1
    33    16    18   ar
    34    16    17   ar
    35    82    81    2
    36    86    85    2
    37    18    20   ar
    38    51    52    1
    39    84    85    1
    40    84    87    1
    41    84    83    1
    42    17    19   ar
    43    76    73    1
    44    76    77    1
    45    88    87    1
    46    88    89    1
    47    52    55    1
    48     2     1    1
    49     2     5    1
    50    81    83   am
    51    81    80    1
    52    89    90    1
    53    73    74    1
    54    73    72    1
    55    79    74   am
    56    79    80    1
    57    20    21   ar
    58     5     6    1
    59    19    21   ar
    60    55    56    1
    61    74    75    2
    62    21    22    1
    63     6     8   ar
    64     6     7   ar
    65     8    10   ar
    66   110   111    1
    67   110   107    1
    68    56    57   ar
    69    56    58   ar
    70    57    59   ar
    71    58    60   ar
    72     7     9   ar
    73   108   109    2
    74   108   107    1
    75   107   106    1
    76    10     9   ar
    77   117   118    1
    78   117   116    1
    79    36    35    2
    80   118   112    1
    81    59    61   ar
    82    60    61   ar
    83    35    34    1
    84    33    34    1
    85    33    30   am
    86    61    62    1
    87   116   113    1
    88    32    29    1
    89   112   113    1
    90    29    30    1
    91    29    28    1
    92    26    25    2
    93    30    31    2
    94   105   103   am
    95   113   114    1
    96   115   114    2
    97    25    28   am
    98    25    24    1
    99   103   104    2
   100   103   102    1
   101   101   100    2
   102    23    24    1
   103    24    27    1
   104   125   124   ar
   105   125   127   ar
   106   100    99    1
   107   123   124    1
   108   123   120    1
   109   102    99    1
   110   124   126   ar
   111   127   128   ar
   112   119   120    1
   113   135   133    1
   114   120   121    1
   115   126   128   ar
   116    99    98    1
   117    96    95    1
   118   134   133    1
   119    98    93   am
   120   133   130    1
   121    91    92    1
   122    93    92    1
   123    93    94    2
   124   121   122    2
   125    95    92    1
   126    95    97    1
   127   130   129    1
   128   130   131    1
   129   131   132    2
