@<TRIPOS>MOLECULE
tmp/3djkB00.pdb
 101 95 0 0 0
SMALL
GASTEIGER

@<TRIPOS>ATOM
      1  N         17.1960   26.4310   28.2020 N.3    23  LEU23      -0.1245
      2  CA        16.7760   27.3460   27.1740 C.3    23  LEU23       0.1561
      3  C         15.3100   27.2410   26.9340 C.2    23  LEU23       0.2260
      4  O         14.8270   26.1370   26.5870 O.2    23  LEU23      -0.2867
      5  CB        17.5750   27.0220   25.9130 C.3    23  LEU23       0.0270
      6  CG        17.3680   27.8760   24.6930 C.3    23  LEU23       0.0019
      7  CD1       17.8530   29.2740   24.9440 C.3    23  LEU23       0.0001
      8  CD2       18.1750   27.2820   23.5270 C.3    23  LEU23       0.0001
      9  N         12.4720   27.2080   24.6030 N.3    25  ASP25      -0.1239
     10  CA        12.5270   26.9820   23.1680 C.3    25  ASP25       0.1674
     11  C         11.1560   26.6630   22.5580 C.2    25  ASP25       0.2266
     12  O         10.6410   25.5560   22.6240 O.2    25  ASP25      -0.2867
     13  CB        13.5030   25.8750   22.8800 C.3    25  ASP25       0.1410
     14  CG        13.7440   25.6790   21.3970 C.2    25  ASP25       0.3668
     15  OD1       13.1450   26.4510   20.6050 O.co2  25  ASP25      -0.2456
     16  OD2       14.5560   24.7780   21.1850 O.co2  25  ASP25      -0.2456
     17  N         10.5260   26.4810   19.4640 N.3    27  GLY27      -0.1210
     18  CA        10.7530   25.6050   18.3240 C.3    27  GLY27       0.1956
     19  C         10.8880   24.1400   18.6730 C.2    27  GLY27       0.2612
     20  O         11.0600   23.2940   17.7710 O.2    27  GLY27      -0.2717
     21  N         10.8320   23.7840   19.9550 N.am   28  ALA28      -0.1965
     22  CA        10.9370   22.3960   20.4220 C.3    28  ALA28       0.1728
     23  C          9.5620   21.9520   20.8800 C.2    28  ALA28       0.2616
     24  O          8.9530   22.5440   21.7530 O.2    28  ALA28      -0.2715
     25  CB        11.9160   22.3270   21.5680 C.3    28  ALA28       0.0334
     26  N          9.0560   20.8600   20.2760 N.am   29  ASP29      -0.1957
     27  CA         7.8050   20.3350   20.7460 C.3    29  ASP29       0.1840
     28  C          7.9550   19.7820   22.1630 C.2    29  ASP29       0.2622
     29  O          6.9890   19.8360   22.9340 O.2    29  ASP29      -0.2715
     30  CB         7.3210   19.1600   19.8610 C.3    29  ASP29       0.1450
     31  CG         7.2710   19.4610   18.3730 C.2    29  ASP29       0.3671
     32  OD1        6.9020   20.5610   17.9430 O.co2  29  ASP29      -0.2456
     33  OD2        7.5080   18.4810   17.5950 O.co2  29  ASP29      -0.2456
     34  N          9.1030   19.1920   22.4390 N.am   30  ASP30      -0.1971
     35  CA         9.4140   18.4180   23.6560 C.3    30  ASP30       0.1709
     36  C         10.5820   19.0230   24.3760 C.2    30  ASP30       0.2293
     37  O         11.4320   19.7110   23.8310 O.2    30  ASP30      -0.2864
     38  CB         9.7630   16.9800   23.2400 C.3    30  ASP30       0.1436
     39  CG         8.7440   16.2670   22.4460 C.2    30  ASP30       0.3671
     40  OD1        7.5340   16.3750   22.7430 O.co2  30  ASP30      -0.2456
     41  OD2        9.1730   15.4950   21.5560 O.co2  30  ASP30      -0.2456
     42  N         14.0390   18.4350   26.3750 N.3    32  VAL32      -0.1245
     43  CA        15.1990   17.5460   26.2780 C.3    32  VAL32       0.1561
     44  C         16.2740   18.0280   27.1940 C.2    32  VAL32       0.2260
     45  O         16.6900   19.1820   27.0910 O.2    32  VAL32      -0.2867
     46  CB        15.7270   17.4420   24.8060 C.3    32  VAL32       0.0252
     47  CG1       16.6980   16.2640   24.7890 C.3    32  VAL32       0.0019
     48  CG2       14.5990   17.2650   23.7930 C.3    32  VAL32       0.0019
     49  N         13.7470   11.4940   18.1920 N.3    47  ILE47      -0.1231
     50  CA        13.3980   12.8970   17.8960 C.3    47  ILE47       0.1692
     51  C         14.3330   13.3910   16.8200 C.2    47  ILE47       0.2593
     52  O         15.5220   13.0040   16.7550 O.2    47  ILE47      -0.2718
     53  CB        13.4830   13.7970   19.1320 C.3    47  ILE47       0.0266
     54  CG1       14.8790   13.7900   19.7940 C.3    47  ILE47       0.0019
     55  CG2       12.3410   13.5060   20.0930 C.3    47  ILE47       0.0020
     56  CD1       15.0840   14.7760   20.9190 C.3    47  ILE47       0.0001
     57  N         13.7660   14.2360   15.9640 N.am   48  GLY48      -0.1942
     58  CA        14.5530   14.7190   14.7970 C.3    48  GLY48       0.2014
     59  C         14.8010   16.1820   14.9930 C.2    48  GLY48       0.2639
     60  O         13.9000   17.0120   14.9830 O.2    48  GLY48      -0.2714
     61  N         16.0760   16.5080   15.1400 N.am   49  GLY49      -0.1939
     62  CA        16.5250   17.8760   15.2400 C.3    49  GLY49       0.2014
     63  C         17.1600   18.3410   13.9590 C.2    49  GLY49       0.2638
     64  O         17.0190   17.7400   12.8640 O.2    49  GLY49      -0.2714
     65  N         17.8730   19.4450   14.0470 N.am   50  ILE50      -0.1977
     66  CA        18.3930   20.0390   12.8240 C.3    50  ILE50       0.1596
     67  C         19.3570   19.1170   12.1350 C.2    50  ILE50       0.2287
     68  O         19.4690   19.1580   10.8690 O.2    50  ILE50      -0.2864
     69  CB        19.0470   21.4380   13.1130 C.3    50  ILE50       0.0276
     70  CG1       19.0710   22.2510   11.8130 C.3    50  ILE50       0.0022
     71  CG2       20.3510   21.2750   13.8320 C.3    50  ILE50       0.0022
     72  CD1       19.3400   23.6870   11.9720 C.3    50  ILE50       0.0001
     73  N         22.2030   16.7680   23.7860 N.3    80  THR80      -0.1204
     74  CA        21.7030   18.0310   23.2680 C.3    80  THR80       0.1979
     75  C         22.7370   19.1060   23.5040 C.2    80  THR80       0.2460
     76  O         23.4670   19.0580   24.4820 O.2    80  THR80      -0.2732
     77  CB        20.3170   18.3060   23.9200 C.3    80  THR80       0.1783
     78  OG1       19.8580   19.5490   23.4130 O.3    80  THR80      -0.2211
     79  CG2       20.3460   18.3780   25.4370 C.3    80  THR80       0.0376
     80  N         22.8690   20.1280   22.6580 N.am   81  PRO81      -0.2717
     81  CA        23.8810   21.1530   22.9370 C.3    81  PRO81       0.1535
     82  C         23.5920   21.9050   24.2230 C.2    81  PRO81       0.2598
     83  O         24.4980   22.4400   24.8570 O.2    81  PRO81      -0.2715
     84  CB        23.7240   22.0560   21.7290 C.3    81  PRO81       0.0310
     85  CG        22.3250   21.8070   21.2370 C.3    81  PRO81       0.0237
     86  CD        22.1220   20.3510   21.4180 C.3    81  PRO81       0.0939
     87  N         22.3470   21.9710   24.6470 N.am   82  VAL82      -0.1978
     88  CA        21.8560   22.6740   25.8550 C.3    82  VAL82       0.1596
     89  C         20.5160   22.0810   26.2660 C.2    82  VAL82       0.2287
     90  O         19.7590   21.5920   25.4320 O.2    82  VAL82      -0.2864
     91  CB        21.7370   24.1770   25.5750 C.3    82  VAL82       0.0276
     92  CG1       20.6210   24.4550   24.5490 C.3    82  VAL82       0.0022
     93  CG2       21.4420   25.0440   26.7820 C.3    82  VAL82       0.0022
     94  N         16.7870   22.0340   26.8390 N.3    84  ILE84      -0.1245
     95  CA        15.7430   22.8250   26.1690 C.3    84  ILE84       0.1561
     96  C         14.3790   22.4930   26.7940 C.2    84  ILE84       0.2260
     97  O         13.9980   21.3410   27.0200 O.2    84  ILE84      -0.2867
     98  CB        15.7630   22.6970   24.6090 C.3    84  ILE84       0.0252
     99  CG1       15.5740   21.2680   24.1540 C.3    84  ILE84       0.0019
    100  CG2       17.0200   23.3000   24.0320 C.3    84  ILE84       0.0019
    101  CD1       15.5180   21.0600   22.6500 C.3    84  ILE84       0.0001
@<TRIPOS>BOND
     1    68    67    2
     2    70    72    1
     3    70    69    1
     4    67    66    1
     5    66    69    1
     6    66    65    1
     7    64    63    2
     8    69    71    1
     9    63    65   am
    10    63    62    1
    11    58    59    1
    12    58    57    1
    13    60    59    2
    14    59    61   am
    15    61    62    1
    16    57    51   am
    17    52    51    2
    18    51    50    1
    19    33    31   ar
    20    20    19    2
    21    50    49    1
    22    50    53    1
    23    32    31   ar
    24    18    19    1
    25    18    17    1
    26    31    30    1
    27    19    21   am
    28    53    54    1
    29    53    55    1
    30    54    56    1
    31    30    27    1
    32    21    22    1
    33    26    27    1
    34    26    23   am
    35    22    23    1
    36    22    25    1
    37    15    14   ar
    38    27    28    1
    39    23    24    2
    40    16    14   ar
    41    85    86    1
    42    85    84    1
    43    14    13    1
    44    86    80    1
    45    41    39   ar
    46    84    81    1
    47    28    34   am
    48    28    29    2
    49    34    35    1
    50    39    40   ar
    51    39    38    1
    52    11    12    2
    53    11    10    1
    54   101    99    1
    55    80    81    1
    56    80    75   am
    57    13    10    1
    58    81    82    1
    59    10     9    1
    60    38    35    1
    61    74    75    1
    62    74    73    1
    63    74    77    1
    64    78    77    1
    65    75    76    2
    66     8     6    1
    67    35    36    1
    68    48    46    1
    69    37    36    2
    70    77    79    1
    71   100    98    1
    72    99    98    1
    73    82    87   am
    74    82    83    2
    75    92    91    1
    76    98    95    1
    77    87    88    1
    78     6     7    1
    79     6     5    1
    80    47    46    1
    81    46    43    1
    82    90    89    2
    83    91    88    1
    84    91    93    1
    85    88    89    1
    86     5     2    1
    87    95    96    1
    88    95    94    1
    89    43    42    1
    90    43    44    1
    91     4     3    2
    92    96    97    2
    93     3     2    1
    94    45    44    2
    95     2     1    1
