@<TRIPOS>MOLECULE
tmp/3djxB00.pdb
 106 104 0 0 0
SMALL
GASTEIGER

@<TRIPOS>ATOM
      1  N         21.1090   11.2010   15.1290 N.3    41  LYS41      -0.1231
      2  CA        19.8280   10.5780   15.4170 C.3    41  LYS41       0.1681
      3  C         19.4200    9.8570   14.1360 C.2    41  LYS41       0.2471
      4  O         19.3830   10.4780   13.0760 O.2    41  LYS41      -0.2730
      5  CB        18.7860   11.6200   15.8120 C.3    41  LYS41       0.0284
      6  CG        17.4340   11.0160   16.1550 C.3    41  LYS41       0.0035
      7  CD        16.4860   12.0650   16.6680 C.3    41  LYS41       0.0206
      8  CE        15.1550   11.4400   17.1050 C.3    41  LYS41       0.1093
      9  NZ        14.1790   12.5160   17.4470 N.3    41  LYS41      -0.1314
     10  N         19.1550    8.5410   14.2220 N.am   42  PRO42      -0.2492
     11  CA        18.9580    7.7630   12.9820 C.3    42  PRO42       0.1619
     12  C         17.6850    8.0810   12.1880 C.2    42  PRO42       0.2605
     13  O         17.6900    7.9500   10.9650 O.2    42  PRO42      -0.2715
     14  CB        18.9510    6.2990   13.4510 C.3    42  PRO42       0.0570
     15  CG        19.0360    6.3150   14.9430 C.2    42  PRO42      -0.0077
     16  CD        19.0900    7.7190   15.4490 C.2    42  PRO42       0.0634
     17  N         16.6060    8.4530   12.8790 N.am   43  VAL43      -0.1964
     18  CA        15.2970    8.6530   12.2460 C.3    43  VAL43       0.1727
     19  C         14.6060    9.8150   12.9370 C.2    43  VAL43       0.2616
     20  O         14.5260    9.8410   14.1570 O.2    43  VAL43      -0.2715
     21  CB        14.3820    7.3950   12.3780 C.3    43  VAL43       0.0290
     22  CG1       12.9910    7.6770   11.8020 C.3    43  VAL43       0.0023
     23  CG2       15.0210    6.1620   11.6950 C.3    43  VAL43       0.0023
     24  N         14.0920   10.7580   12.1560 N.am   44  ASN44      -0.1958
     25  CA        13.3500   11.8860   12.7230 C.3    44  ASN44       0.1819
     26  C         12.3550   12.4400   11.7330 C.2    44  ASN44       0.2621
     27  O         12.6520   12.5550   10.5540 O.2    44  ASN44      -0.2715
     28  CB        14.2880   13.0050   13.1810 C.3    44  ASN44       0.1195
     29  CG        13.5650   14.0340   14.0420 C.2    44  ASN44       0.2630
     30  OD1       13.2050   13.7540   15.1880 O.2    44  ASN44      -0.2716
     31  ND2       13.3190   15.2150   13.4810 N.am   44  ASN44      -0.0877
     32  N         11.1700   12.7830   12.2330 N.am   45  THR45      -0.1951
     33  CA        10.1230   13.3700   11.3920 C.3    45  THR45       0.1897
     34  C          9.8910   14.8280   11.7640 C.2    45  THR45       0.2313
     35  O          9.8370   15.1880   12.9530 O.2    45  THR45      -0.2863
     36  CB         8.7980   12.5630   11.5380 C.3    45  THR45       0.1794
     37  OG1        9.0250   11.1840   11.2110 O.3    45  THR45      -0.2208
     38  CG2        7.6870   13.1250   10.6370 C.3    45  THR45       0.0378
     39  N          3.9710    2.3360   19.8030 N.3    66  LYS66      -0.1245
     40  CA         4.9790    1.3380   19.4770 C.3    66  LYS66       0.1561
     41  C          5.6090    0.7440   20.7420 C.2    66  LYS66       0.2260
     42  O          6.0220   -0.4100   20.7370 O.2    66  LYS66      -0.2867
     43  CB         6.0490    1.9160   18.5540 C.3    66  LYS66       0.0271
     44  CG         5.5330    2.1280   17.1390 C.3    66  LYS66       0.0035
     45  CD         6.6390    2.1500   16.0910 C.3    66  LYS66       0.0206
     46  CE         6.0310    1.9890   14.6990 C.3    66  LYS66       0.1093
     47  NZ         7.0430    2.0140   13.6080 N.3    66  LYS66      -0.1314
     48  N         10.2020   13.0060    6.3150 N.3    83  ASP83      -0.1239
     49  CA        10.8510   11.8780    6.9510 C.3    83  ASP83       0.1674
     50  C         12.3410   12.0220    6.7150 C.2    83  ASP83       0.2266
     51  O         12.7870   12.1860    5.5660 O.2    83  ASP83      -0.2867
     52  CB        10.3090   10.5880    6.3420 C.3    83  ASP83       0.1410
     53  CG        10.9950    9.3600    6.8850 C.2    83  ASP83       0.3668
     54  OD1       12.0390    8.9760    6.3320 O.co2  83  ASP83      -0.2456
     55  OD2       10.4640    8.7590    7.8330 O.co2  83  ASP83      -0.2456
     56  N         15.9270   10.0840    7.3860 N.3    85  ARG85      -0.1245
     57  CA        16.5600    8.8010    7.7000 C.3    85  ARG85       0.1563
     58  C         18.0260    8.8890    7.3930 C.2    85  ARG85       0.2260
     59  O         18.4110    9.3140    6.2980 O.2    85  ARG85      -0.2867
     60  CB        16.0270    7.6920    6.7930 C.3    85  ARG85       0.0307
     61  CG        14.5720    7.5570    6.7670 C.3    85  ARG85       0.0489
     62  CD        14.1290    6.4290    7.6440 C.3    85  ARG85       0.2205
     63  NE        12.7420    6.6430    7.9960 N.pl3  85  ARG85      -0.0865
     64  CZ        12.0630    5.9270    8.8770 C.cat  85  ARG85       0.5346
     65  NH1       10.7980    6.2310    9.1070 N.pl3  85  ARG85       0.1354
     66  NH2       12.6390    4.9030    9.5100 N.pl3  85  ARG85       0.1354
     67  N          6.1590   13.2400   22.1190 N.3   119  HIS119     -0.1226
     68  CA         7.0240   12.2800   21.4190 C.3   119  HIS119      0.1752
     69  C          6.3930   11.9610   20.0740 C.2   119  HIS119      0.2596
     70  O          5.1510   11.8930   19.9500 O.2   119  HIS119     -0.2718
     71  CB         7.2000   11.0180   22.3030 C.3   119  HIS119      0.0759
     72  CG         7.4680    9.7440   21.5590 C.ar  119  HIS119      0.0818
     73  ND1        8.7430    9.3030   21.2670 N.ar  119  HIS119     -0.2268
     74  CD2        6.6270    8.7800   21.1050 C.ar  119  HIS119      0.1154
     75  CE1        8.6750    8.1390   20.6440 C.ar  119  HIS119      0.1986
     76  NE2        7.4030    7.8030   20.5290 N.ar  119  HIS119     -0.2212
     77  N          7.2280   11.8010   19.0560 N.am  120  PHE120     -0.1962
     78  CA         6.7040   11.4030   17.7580 C.3   120  PHE120      0.1771
     79  C          6.8720    9.8990   17.6290 C.2   120  PHE120      0.2620
     80  O          7.9970    9.3960   17.6920 O.2   120  PHE120     -0.2715
     81  CB         7.4330   12.1210   16.6100 C.3   120  PHE120      0.0574
     82  CG         6.7580   11.9310   15.2740 C.ar  120  PHE120     -0.0200
     83  CD1        6.9570   10.7670   14.5250 C.ar  120  PHE120     -0.0042
     84  CD2        5.8920   12.9050   14.7800 C.ar  120  PHE120     -0.0042
     85  CE1        6.2940   10.5740   13.3210 C.ar  120  PHE120     -0.0003
     86  CE2        5.2380   12.7140   13.5540 C.ar  120  PHE120     -0.0003
     87  CZ         5.4420   11.5540   12.8390 C.ar  120  PHE120     -0.0000
     88  N          5.7630    9.1810   17.4390 N.am  121  ASP121     -0.1957
     89  CA         5.8190    7.7090   17.4840 C.3   121  ASP121      0.1840
     90  C          6.0370    7.0510   16.1260 C.2   121  ASP121      0.2622
     91  O          6.8850    6.1590   15.9770 O.2   121  ASP121     -0.2715
     92  CB         4.5540    7.1450   18.1590 C.3   121  ASP121      0.1450
     93  CG         4.7880    5.7870   18.7990 C.2   121  ASP121      0.3671
     94  OD1        5.7670    5.6410   19.5880 O.co2 121  ASP121     -0.2456
     95  OD2        3.9810    4.8630   18.5370 O.co2 121  ASP121     -0.2456
     96  N          5.2450    7.4770   15.1450 N.am  122  ALA122     -0.1963
     97  CA         5.2420    6.8560   13.8260 C.3   122  ALA122      0.1728
     98  C          4.4360    7.6880   12.8370 C.2   122  ALA122      0.2616
     99  O          3.6060    8.5240   13.2270 O.2   122  ALA122     -0.2715
    100  CB         4.6440    5.4470   13.9060 C.3   122  ALA122      0.0334
    101  N          4.6940    7.4410   11.5580 N.am  123  SER123     -0.1950
    102  CA         3.8340    7.9280   10.5010 C.3   123  SER123      0.1924
    103  C          3.3040    6.7070    9.7970 C.2   123  SER123      0.2314
    104  O          4.0770    5.7690    9.5170 O.2   123  SER123     -0.2863
    105  CB         4.5950    8.8350    9.5230 C.3   123  SER123      0.2116
    106  OG         5.7490    8.1970    8.9840 O.3   123  SER123     -0.2180
@<TRIPOS>BOND
     1    51    50    2
     2    59    58    2
     3    48    49    1
     4    54    53   ar
     5    52    53    1
     6    52    49    1
     7    50    49    1
     8    61    60    1
     9    61    62    1
    10    60    57    1
    11    53    55   ar
    12    56    57    1
    13    58    57    1
    14    62    63    1
    15    63    64    2
    16    64    65    1
    17    64    66    1
    18   106   105    1
    19   104   103    2
    20   105   102    1
    21   103   102    1
    22   102   101    1
    23    27    26    2
    24    38    36    1
    25    13    12    2
    26    37    36    1
    27    33    36    1
    28    33    34    1
    29    33    32    1
    30   101    98   am
    31    23    21    1
    32    26    32   am
    33    26    25    1
    34    34    35    2
    35    22    21    1
    36    24    25    1
    37    24    19   am
    38    12    17   am
    39    12    11    1
    40    18    21    1
    41    18    17    1
    42    18    19    1
    43    25    28    1
    44    98    99    2
    45    98    97    1
    46    87    85   ar
    47    87    86   ar
    48    19    20    2
    49    11    14    1
    50    11    10    1
    51     4     3    2
    52    28    29    1
    53    85    83   ar
    54    14    15    1
    55    31    29   am
    56    86    84   ar
    57    47    46    1
    58    97   100    1
    59    97    96    1
    60    29    30    2
    61     3    10   am
    62     3     2    1
    63    10    16    1
    64    83    82   ar
    65    46    45    1
    66    84    82   ar
    67    15    16    2
    68     1     2    1
    69    96    90   am
    70    82    81    1
    71     2     5    1
    72     5     6    1
    73    91    90    2
    74    45    44    1
    75    90    89    1
    76     6     7    1
    77    81    78    1
    78     7     8    1
    79     8     9    1
    80    44    43    1
    81    88    89    1
    82    88    79   am
    83    89    92    1
    84    79    80    2
    85    79    78    1
    86    78    77    1
    87    92    93    1
    88    95    93   ar
    89    43    40    1
    90    93    94   ar
    91    77    69   am
    92    40    39    1
    93    40    41    1
    94    70    69    2
    95    69    68    1
    96    76    75   ar
    97    76    74   ar
    98    75    73   ar
    99    42    41    2
   100    74    72   ar
   101    73    72   ar
   102    68    67    1
   103    68    71    1
   104    72    71    1
