@<TRIPOS>MOLECULE
tmp/3dk6B00.pdb
 133 128 0 0 0
SMALL
GASTEIGER

@<TRIPOS>ATOM
      1  N        -84.3340   73.0700   95.9360 N.3    16  VAL16      -0.1245
      2  CA       -84.9470   74.3660   96.2180 C.3    16  VAL16       0.1561
      3  C        -85.9250   74.7660   95.1170 C.2    16  VAL16       0.2260
      4  O        -85.5950   74.7150   93.9280 O.2    16  VAL16      -0.2867
      5  CB       -83.8860   75.4720   96.3950 C.3    16  VAL16       0.0252
      6  CG1      -84.5230   76.8280   96.6790 C.3    16  VAL16       0.0019
      7  CG2      -82.9910   75.1040   97.5810 C.3    16  VAL16       0.0019
      8  N        -89.3080   81.1090   98.9820 N.3    29  ALA29      -0.1231
      9  CA       -88.4130   80.0410   98.5460 C.3    29  ALA29       0.1694
     10  C        -88.5400   78.8460   99.4860 C.2    29  ALA29       0.2592
     11  O        -88.5760   79.0090  100.7080 O.2    29  ALA29      -0.2718
     12  CB       -86.9790   80.5330   98.4910 C.3    29  ALA29       0.0304
     13  N        -88.6170   77.6490   98.9090 N.am   30  VAL30      -0.1966
     14  CA       -88.8130   76.4270   99.6890 C.3    30  VAL30       0.1727
     15  C        -87.7120   75.3990   99.4200 C.2    30  VAL30       0.2616
     16  O        -87.5100   74.9730   98.2810 O.2    30  VAL30      -0.2715
     17  CB       -90.2120   75.7900   99.4320 C.3    30  VAL30       0.0290
     18  CG1      -90.3900   74.5210  100.2570 C.3    30  VAL30       0.0023
     19  CG2      -91.3320   76.7800   99.7420 C.3    30  VAL30       0.0023
     20  N        -87.0030   75.0170  100.4810 N.am   31  LYS31      -0.1977
     21  CA       -86.0350   73.9260  100.4270 C.3    31  LYS31       0.1596
     22  C        -86.7200   72.6460  100.9000 C.2    31  LYS31       0.2287
     23  O        -87.2620   72.5960  102.0080 O.2    31  LYS31      -0.2864
     24  CB       -84.8110   74.2460  101.2940 C.3    31  LYS31       0.0298
     25  CG       -83.6520   73.2810  101.1860 C.3    31  LYS31       0.0038
     26  CD       -82.2940   74.0050  101.4190 C.3    31  LYS31       0.0206
     27  CE       -82.3240   74.9970  102.5960 C.3    31  LYS31       0.1093
     28  NZ       -82.5280   74.3280  103.9030 N.3    31  LYS31      -0.1314
     29  N        -80.7100   85.6720  105.1310 N.3    54  VAL54      -0.1245
     30  CA       -81.9960   85.1960  104.6150 C.3    54  VAL54       0.1561
     31  C        -82.9090   84.7580  105.7650 C.2    54  VAL54       0.2260
     32  O        -82.5580   83.8750  106.5520 O.2    54  VAL54      -0.2867
     33  CB       -81.8120   84.0570  103.5740 C.3    54  VAL54       0.0252
     34  CG1      -83.1600   83.5650  103.0560 C.3    54  VAL54       0.0019
     35  CG2      -80.9480   84.5290  102.4120 C.3    54  VAL54       0.0019
     36  N        -88.4390   80.2460  103.2970 N.3    70  THR70      -0.1203
     37  CA       -87.6940   81.4860  103.5240 C.3    70  THR70       0.1994
     38  C        -88.1660   82.5910  102.5790 C.2    70  THR70       0.2618
     39  O        -88.9100   82.3320  101.6290 O.2    70  THR70      -0.2717
     40  CB       -86.1630   81.2910  103.3380 C.3    70  THR70       0.1784
     41  OG1      -85.8540   81.1560  101.9450 O.3    70  THR70      -0.2211
     42  CG2      -85.6590   80.0640  104.0960 C.3    70  THR70       0.0376
     43  N        -87.7230   83.8190  102.8440 N.am   71  GLU71      -0.1965
     44  CA       -87.9930   84.9560  101.9640 C.3    71  GLU71       0.1733
     45  C        -87.3570   84.7600  100.5880 C.2    71  GLU71       0.2616
     46  O        -86.3810   84.0200  100.4420 O.2    71  GLU71      -0.2715
     47  CB       -87.5150   86.2680  102.5970 C.3    71  GLU71       0.0429
     48  CG       -86.0090   86.3500  102.8510 C.3    71  GLU71       0.1163
     49  CD       -85.5760   87.6960  103.4020 C.2    71  GLU71       0.3649
     50  OE1      -84.6750   87.7190  104.2660 O.co2  71  GLU71      -0.2457
     51  OE2      -86.1330   88.7320  102.9760 O.co2  71  GLU71      -0.2457
     52  N        -87.9230   85.4250   99.5850 N.am   72  PHE72      -0.1960
     53  CA       -87.4540   85.2990   98.2110 C.3    72  PHE72       0.1771
     54  C        -86.6090   86.5030   97.8090 C.2    72  PHE72       0.2619
     55  O        -86.9850   87.6500   98.0660 O.2    72  PHE72      -0.2715
     56  CB       -88.6450   85.1280   97.2610 C.3    72  PHE72       0.0574
     57  CG       -88.2600   84.7570   95.8570 C.ar   72  PHE72      -0.0200
     58  CD1      -87.8490   83.4620   95.5520 C.ar   72  PHE72      -0.0042
     59  CD2      -88.3230   85.6990   94.8350 C.ar   72  PHE72      -0.0042
     60  CE1      -87.4960   83.1140   94.2520 C.ar   72  PHE72      -0.0003
     61  CE2      -87.9730   85.3610   93.5300 C.ar   72  PHE72      -0.0003
     62  CZ       -87.5580   84.0660   93.2380 C.ar   72  PHE72      -0.0000
     63  N        -85.4620   86.2300   97.1910 N.am   73  MET73      -0.1963
     64  CA       -84.5880   87.2780   96.6640 C.3    73  MET73       0.1736
     65  C        -84.6950   87.2950   95.1420 C.2    73  MET73       0.2617
     66  O        -84.1860   86.3990   94.4660 O.2    73  MET73      -0.2715
     67  CB       -83.1360   87.0670   97.1140 C.3    73  MET73       0.0427
     68  CG       -82.9510   86.8440   98.6200 C.3    73  MET73       0.0599
     69  SD       -83.5950   88.1570   99.6800 S.3    73  MET73      -0.1393
     70  CE       -82.5360   89.5350   99.2390 C.3    73  MET73       0.0692
     71  N        -85.3600   88.3250   94.6180 N.am   74  THR74      -0.1937
     72  CA       -85.7620   88.3890   93.2040 C.3    74  THR74       0.2028
     73  C        -84.6360   88.1970   92.1800 C.2    74  THR74       0.2642
     74  O        -84.8140   87.4890   91.1870 O.2    74  THR74      -0.2714
     75  CB       -86.5390   89.6930   92.8810 C.3    74  THR74       0.1808
     76  OG1      -85.7900   90.8280   93.3320 O.3    74  THR74      -0.2208
     77  CG2      -87.9030   89.6890   93.5580 C.3    74  THR74       0.0379
     78  N        -83.4860   88.8210   92.4300 N.am   75  TYR75      -0.1959
     79  CA       -82.3830   88.8410   91.4620 C.3    75  TYR75       0.1771
     80  C        -81.4390   87.6340   91.5360 C.2    75  TYR75       0.2620
     81  O        -80.4310   87.5890   90.8270 O.2    75  TYR75      -0.2715
     82  CB       -81.5960   90.1520   91.5730 C.3    75  TYR75       0.0574
     83  CG       -82.3590   91.3630   91.0830 C.ar   75  TYR75      -0.0198
     84  CD1      -83.0690   92.1700   91.9720 C.ar   75  TYR75      -0.0009
     85  CD2      -82.3750   91.7010   89.7280 C.ar   75  TYR75      -0.0009
     86  CE1      -83.7740   93.2840   91.5280 C.ar   75  TYR75       0.0417
     87  CE2      -83.0780   92.8140   89.2720 C.ar   75  TYR75       0.0417
     88  CZ       -83.7750   93.6000   90.1780 C.ar   75  TYR75       0.1957
     89  OH       -84.4720   94.7030   89.7360 O.3    75  TYR75      -0.2866
     90  N        -81.7700   86.6650   92.3860 N.am   76  GLY76      -0.1940
     91  CA       -80.9980   85.4270   92.4940 C.3    76  GLY76       0.2014
     92  C        -79.6560   85.6010   93.1800 C.2    76  GLY76       0.2638
     93  O        -79.4880   86.4980   94.0090 O.2    76  GLY76      -0.2714
     94  N        -78.6980   84.7440   92.8300 N.am   77  ASN77      -0.1972
     95  CA       -77.3850   84.7620   93.4730 C.3    77  ASN77       0.1688
     96  C        -76.4930   85.9060   92.9920 C.2    77  ASN77       0.2292
     97  O        -76.5970   86.3470   91.8440 O.2    77  ASN77      -0.2864
     98  CB       -76.6800   83.4020   93.3480 C.3    77  ASN77       0.1181
     99  CG       -76.1190   83.1510   91.9610 C.2    77  ASN77       0.2629
    100  OD1      -75.0140   83.5820   91.6410 O.2    77  ASN77      -0.2716
    101  ND2      -76.8730   82.4340   91.1380 N.am   77  ASN77      -0.0877
    102  N        -74.0110   85.4640   89.6440 N.3    80  ASP80      -0.1239
    103  CA       -74.6940   85.6400   88.3640 C.3    80  ASP80       0.1674
    104  C        -75.1730   87.0770   88.1700 C.2    80  ASP80       0.2266
    105  O        -75.1890   87.5830   87.0460 O.2    80  ASP80      -0.2867
    106  CB       -75.8730   84.6680   88.2420 C.3    80  ASP80       0.1410
    107  CG       -75.4310   83.2230   88.0570 C.2    80  ASP80       0.3668
    108  OD1      -74.3080   82.9880   87.5620 O.co2  80  ASP80      -0.2456
    109  OD2      -76.2200   82.3160   88.3980 O.co2  80  ASP80      -0.2456
    110  N        -77.2770   86.3300   98.0400 N.3   125  LEU125     -0.1245
    111  CA       -78.4760   86.5620   97.2420 C.3   125  LEU125      0.1561
    112  C        -78.8260   88.0450   97.1600 C.2   125  LEU125      0.2260
    113  O        -78.5850   88.7990   98.1020 O.2   125  LEU125     -0.2867
    114  CB       -79.6500   85.7430   97.7930 C.3   125  LEU125      0.0270
    115  CG       -79.5040   84.2140   97.7760 C.3   125  LEU125      0.0019
    116  CD1      -80.5280   83.5570   98.6900 C.3   125  LEU125      0.0001
    117  CD2      -79.6090   83.6560   96.3620 C.3   125  LEU125      0.0001
    118  N        -76.7350   83.6460  102.3160 N.3   135  ALA135     -0.1245
    119  CA       -77.4450   82.3850  102.5170 C.3   135  ALA135      0.1562
    120  C        -77.0130   81.7670  103.8430 C.2   135  ALA135      0.2260
    121  O        -75.8200   81.6540  104.1210 O.2   135  ALA135     -0.2867
    122  CB       -77.1800   81.4290  101.3640 C.3   135  ALA135      0.0290
    123  N        -78.3510   78.6720  105.2590 N.3   137  PHE137     -0.1241
    124  CA       -79.0610   77.3960  105.3160 C.3   137  PHE137      0.1605
    125  C        -78.1930   76.2550  105.8510 C.2   137  PHE137      0.2264
    126  O        -78.6960   75.1620  106.0990 O.2   137  PHE137     -0.2867
    127  CB       -79.6470   77.0350  103.9410 C.3   137  PHE137      0.0534
    128  CG       -80.1820   78.2190  103.1700 C.ar  137  PHE137     -0.0203
    129  CD1      -81.1620   79.0480  103.7160 C.ar  137  PHE137     -0.0042
    130  CD2      -79.7080   78.5000  101.8920 C.ar  137  PHE137     -0.0042
    131  CE1      -81.6510   80.1420  103.0060 C.ar  137  PHE137     -0.0003
    132  CE2      -80.1950   79.5880  101.1730 C.ar  137  PHE137     -0.0003
    133  CZ       -81.1680   80.4100  101.7300 C.ar  137  PHE137     -0.0000
@<TRIPOS>BOND
     1   105   104    2
     2   108   107   ar
     3   107   106    1
     4   107   109   ar
     5   104   103    1
     6   106   103    1
     7   103   102    1
     8    87    85   ar
     9    87    88   ar
    10    85    83   ar
    11    89    88    1
    12    88    86   ar
    13    81    80    2
    14    83    82    1
    15    83    84   ar
    16   101    99   am
    17    74    73    2
    18    79    80    1
    19    79    82    1
    20    79    78    1
    21    86    84   ar
    22    80    90   am
    23   100    99    2
    24    97    96    2
    25    99    98    1
    26    73    78   am
    27    73    72    1
    28    90    91    1
    29    91    92    1
    30    94    92   am
    31    94    95    1
    32    75    72    1
    33    75    76    1
    34    75    77    1
    35    96    95    1
    36    92    93    2
    37    72    71    1
    38    62    61   ar
    39    62    60   ar
    40    98    95    1
    41    61    59   ar
    42     4     3    2
    43    60    58   ar
    44    66    65    2
    45    71    65   am
    46    59    57   ar
    47     3     2    1
    48    65    64    1
    49    58    57   ar
    50    57    56    1
    51     1     2    1
    52     2     5    1
    53   117   115    1
    54     5     6    1
    55     5     7    1
    56    64    67    1
    57    64    63    1
    58    67    68    1
    59   112   111    1
    60   112   113    2
    61    63    54   am
    62   111   114    1
    63   111   110    1
    64    56    53    1
    65   115   114    1
    66   115   116    1
    67    54    55    2
    68    54    53    1
    69    53    52    1
    70    16    15    2
    71    12     9    1
    72     9     8    1
    73     9    10    1
    74    68    69    1
    75    13    10   am
    76    13    14    1
    77    70    69    1
    78    15    14    1
    79    15    20   am
    80    17    14    1
    81    17    19    1
    82    17    18    1
    83    10    11    2
    84    52    45   am
    85    21    20    1
    86    21    22    1
    87    21    24    1
    88    46    45    2
    89    45    44    1
    90    22    23    2
    91   132   133   ar
    92   132   130   ar
    93    25    24    1
    94    25    26    1
    95   122   119    1
    96    26    27    1
    97    39    38    2
    98   133   131   ar
    99   130   128   ar
   100    41    40    1
   101    44    47    1
   102    44    43    1
   103   118   119    1
   104    35    33    1
   105   119   120    1
   106    38    43   am
   107    38    37    1
   108    27    28    1
   109    47    48    1
   110    48    49    1
   111    51    49   ar
   112   131   129   ar
   113    34    33    1
   114   128   129   ar
   115   128   127    1
   116    36    37    1
   117    40    37    1
   118    40    42    1
   119    49    50   ar
   120    33    30    1
   121   120   121    2
   122   127   124    1
   123    30    29    1
   124    30    31    1
   125   123   124    1
   126   124   125    1
   127    31    32    2
   128   125   126    2
