@<TRIPOS>MOLECULE
tmp/3dk6A00.pdb
 166 158 0 0 0
SMALL
GASTEIGER

@<TRIPOS>ATOM
      1  N        -42.5310   85.1030   56.8840 N.3    16  LEU16      -0.1245
      2  CA       -42.8240   84.1140   57.9260 C.3    16  LEU16       0.1561
      3  C        -43.4020   84.7330   59.1980 C.2    16  LEU16       0.2260
      4  O        -42.7940   85.6130   59.8070 O.2    16  LEU16      -0.2867
      5  CB       -41.5790   83.2820   58.2570 C.3    16  LEU16       0.0270
      6  CG       -41.0480   82.3150   57.1950 C.3    16  LEU16       0.0019
      7  CD1      -39.6960   81.7510   57.6150 C.3    16  LEU16       0.0001
      8  CD2      -42.0400   81.1910   56.9090 C.3    16  LEU16       0.0001
      9  N        -45.4400   87.3730   62.1870 N.3    17  GLY17      -0.1210
     10  CA       -44.0110   87.6620   62.1600 C.3    17  GLY17       0.1956
     11  C        -43.4220   87.8100   63.5480 C.2    17  GLY17       0.2612
     12  O        -43.0030   88.9020   63.9400 O.2    17  GLY17      -0.2717
     13  N        -43.3870   86.7020   64.2870 N.am   18  GLN18      -0.1965
     14  CA       -42.8800   86.6840   65.6610 C.3    18  GLN18       0.1733
     15  C        -41.3520   86.7560   65.7300 C.2    18  GLN18       0.2616
     16  O        -40.7870   87.1350   66.7590 O.2    18  GLN18      -0.2715
     17  CB       -43.3790   85.4360   66.3950 C.3    18  GLN18       0.0408
     18  CG       -44.8680   85.1740   66.1720 C.3    18  GLN18       0.0908
     19  CD       -45.7100   86.2920   66.7600 C.2    18  GLN18       0.2608
     20  OE1      -45.4990   86.7550   67.8770 O.2    18  GLN18      -0.2717
     21  NE2      -46.7010   86.6800   65.9860 N.am   18  GLN18      -0.0878
     22  N        -40.6970   86.3960   64.6290 N.am   19  PHE19      -0.1974
     23  CA       -39.2370   86.3680   64.5550 C.3    19  PHE19       0.1639
     24  C        -38.6370   87.6610   63.9900 C.2    19  PHE19       0.2290
     25  O        -37.4140   87.8300   63.9710 O.2    19  PHE19      -0.2864
     26  CB       -38.7820   85.1630   63.7300 C.3    19  PHE19       0.0560
     27  CG       -39.0750   83.7820   64.3440 C.ar   19  PHE19      -0.0200
     28  CD1      -39.2560   83.6590   65.7050 C.ar   19  PHE19      -0.0042
     29  CD2      -39.0960   82.6730   63.5030 C.ar   19  PHE19      -0.0042
     30  CE1      -39.4650   82.3920   66.2100 C.ar   19  PHE19      -0.0003
     31  CE2      -39.3020   81.4170   64.0210 C.ar   19  PHE19      -0.0003
     32  CZ       -39.4850   81.2950   65.3880 C.ar   19  PHE19      -0.0000
     33  N        -38.2340   88.1300   58.8060 N.3    22  VAL22      -0.1245
     34  CA       -37.7920   86.7990   58.3950 C.3    22  VAL22       0.1561
     35  C        -38.6790   86.2660   57.2700 C.2    22  VAL22       0.2260
     36  O        -39.9100   86.2770   57.3740 O.2    22  VAL22      -0.2867
     37  CB       -37.7800   85.8100   59.5900 C.3    22  VAL22       0.0252
     38  CG1      -37.3580   84.4150   59.1420 C.3    22  VAL22       0.0019
     39  CG2      -36.8580   86.3140   60.6900 C.3    22  VAL22       0.0019
     40  N        -34.4250   80.1050   54.5650 N.3    35  ALA35      -0.1245
     41  CA       -34.9310   81.1800   55.4110 C.3    35  ALA35       0.1562
     42  C        -33.9810   82.3710   55.3260 C.2    35  ALA35       0.2260
     43  O        -32.7630   82.2000   55.2950 O.2    35  ALA35      -0.2867
     44  CB       -35.0800   80.7130   56.8470 C.3    35  ALA35       0.0290
     45  N        -33.1450   86.1770   57.0170 N.3    37  LYS37      -0.1245
     46  CA       -33.3250   87.2650   57.9700 C.3    37  LYS37       0.1561
     47  C        -32.8010   88.5600   57.3640 C.2    37  LYS37       0.2260
     48  O        -31.6570   88.6260   56.9110 O.2    37  LYS37      -0.2867
     49  CB       -32.6210   86.9710   59.2980 C.3    37  LYS37       0.0271
     50  CG       -32.9050   88.0050   60.3810 C.3    37  LYS37       0.0035
     51  CD       -32.3460   87.5890   61.7300 C.3    37  LYS37       0.0206
     52  CE       -32.6580   88.6360   62.7870 C.3    37  LYS37       0.1093
     53  NZ       -32.1100   88.2690   64.1200 N.3    37  LYS37      -0.1314
     54  N        -29.3590   75.5270   63.7990 N.3    60  VAL60      -0.1245
     55  CA       -29.7310   75.9540   62.4460 C.3    60  VAL60       0.1561
     56  C        -28.4930   76.3930   61.6580 C.2    60  VAL60       0.2260
     57  O        -27.7470   77.2670   62.0950 O.2    60  VAL60      -0.2867
     58  CB       -30.8110   77.0720   62.4660 C.3    60  VAL60       0.0252
     59  CG1      -31.1430   77.5360   61.0490 C.3    60  VAL60       0.0019
     60  CG2      -32.0750   76.5850   63.1640 C.3    60  VAL60       0.0019
     61  N        -29.1690   87.4450   56.1850 N.3    74  ILE74      -0.1245
     62  CA       -28.6060   86.2300   56.7650 C.3    74  ILE74       0.1561
     63  C        -29.4500   85.0680   56.2430 C.2    74  ILE74       0.2260
     64  O        -30.6570   85.0120   56.4820 O.2    74  ILE74      -0.2867
     65  CB       -28.5890   86.2590   58.3150 C.3    74  ILE74       0.0252
     66  CG1      -27.5700   87.2870   58.8220 C.3    74  ILE74       0.0019
     67  CG2      -28.2670   84.8730   58.8790 C.3    74  ILE74       0.0019
     68  CD1      -27.6840   87.6020   60.3120 C.3    74  ILE74       0.0001
     69  N        -30.2390   81.0420   55.9780 N.3    76  THR76      -0.1203
     70  CA       -30.0830   79.7660   56.6760 C.3    76  THR76       0.1994
     71  C        -30.9650   78.6910   56.0500 C.2    76  THR76       0.2618
     72  O        -31.8060   78.9820   55.1950 O.2    76  THR76      -0.2717
     73  CB       -30.4400   79.8810   58.1890 C.3    76  THR76       0.1784
     74  OG1      -31.8600   79.9660   58.3480 O.3    76  THR76      -0.2211
     75  CG2      -29.7880   81.1040   58.8290 C.3    76  THR76       0.0376
     76  N        -30.7730   77.4490   56.4890 N.am   77  GLU77      -0.1965
     77  CA       -31.6550   76.3490   56.1120 C.3    77  GLU77       0.1733
     78  C        -33.0890   76.6110   56.5740 C.2    77  GLU77       0.2616
     79  O        -33.3200   77.3270   57.5590 O.2    77  GLU77      -0.2715
     80  CB       -31.1450   75.0230   56.6810 C.3    77  GLU77       0.0429
     81  CG       -31.1490   74.9380   58.2070 C.3    77  GLU77       0.1163
     82  CD       -30.5750   73.6320   58.7240 C.2    77  GLU77       0.3649
     83  OE1      -29.8270   73.6690   59.7220 O.co2  77  GLU77      -0.2457
     84  OE2      -30.8640   72.5680   58.1350 O.co2  77  GLU77      -0.2457
     85  N        -34.0400   76.0340   55.8460 N.am   78  PHE78      -0.1960
     86  CA       -35.4490   76.1570   56.1730 C.3    78  PHE78       0.1771
     87  C        -35.9230   74.9180   56.9280 C.2    78  PHE78       0.2619
     88  O        -35.7100   73.7840   56.4860 O.2    78  PHE78      -0.2715
     89  CB       -36.2780   76.3740   54.9030 C.3    78  PHE78       0.0574
     90  CG       -37.6990   76.7910   55.1660 C.ar   78  PHE78      -0.0200
     91  CD1      -38.0120   78.1230   55.4150 C.ar   78  PHE78      -0.0042
     92  CD2      -38.7270   75.8510   55.1540 C.ar   78  PHE78      -0.0042
     93  CE1      -39.3260   78.5140   55.6570 C.ar   78  PHE78      -0.0003
     94  CE2      -40.0450   76.2320   55.3940 C.ar   78  PHE78      -0.0003
     95  CZ       -40.3450   77.5660   55.6460 C.ar   78  PHE78      -0.0000
     96  N        -36.5520   75.1530   58.0750 N.am   79  MET79      -0.1963
     97  CA       -37.0970   74.0910   58.9090 C.3    79  MET79       0.1736
     98  C        -38.5940   74.0110   58.6570 C.2    79  MET79       0.2617
     99  O        -39.3560   74.8740   59.0940 O.2    79  MET79      -0.2715
    100  CB       -36.8030   74.3610   60.3890 C.3    79  MET79       0.0427
    101  CG       -35.3250   74.5960   60.7150 C.3    79  MET79       0.0599
    102  SD       -34.2190   73.2300   60.2960 S.3    79  MET79      -0.1393
    103  CE       -34.8440   71.9210   61.3490 C.3    79  MET79       0.0692
    104  N        -39.0000   72.9590   57.9530 N.am   80  THR80      -0.1937
    105  CA       -40.3380   72.8650   57.3600 C.3    80  THR80       0.2028
    106  C        -41.5230   72.9990   58.3260 C.2    80  THR80       0.2642
    107  O        -42.5520   73.5670   57.9590 O.2    80  THR80      -0.2714
    108  CB       -40.4940   71.5800   56.5030 C.3    80  THR80       0.1808
    109  OG1      -40.1170   70.4340   57.2730 O.3    80  THR80      -0.2208
    110  CG2      -39.6110   71.6560   55.2670 C.3    80  THR80       0.0379
    111  N        -41.3780   72.4940   59.5500 N.am   81  TYR81      -0.1959
    112  CA       -42.5010   72.4660   60.5000 C.3    81  TYR81       0.1771
    113  C        -42.5780   73.6460   61.4770 C.2    81  TYR81       0.2620
    114  O        -43.4640   73.6940   62.3330 O.2    81  TYR81      -0.2715
    115  CB       -42.5510   71.1210   61.2380 C.3    81  TYR81       0.0574
    116  CG       -42.8750   69.9650   60.3180 C.ar   81  TYR81      -0.0198
    117  CD1      -41.8640   69.1640   59.7920 C.ar   81  TYR81      -0.0009
    118  CD2      -44.1930   69.6880   59.9530 C.ar   81  TYR81      -0.0009
    119  CE1      -42.1550   68.1080   58.9340 C.ar   81  TYR81       0.0417
    120  CE2      -44.4960   68.6340   59.0950 C.ar   81  TYR81       0.0417
    121  CZ       -43.4720   67.8490   58.5910 C.ar   81  TYR81       0.1957
    122  OH       -43.7630   66.8050   57.7420 O.3    81  TYR81      -0.2866
    123  N        -41.6670   74.6050   61.3340 N.am   82  GLY82      -0.1940
    124  CA       -41.7050   75.8200   62.1450 C.3    82  GLY82       0.2014
    125  C        -41.2650   75.6050   63.5810 C.2    82  GLY82       0.2638
    126  O        -40.5000   74.6860   63.8700 O.2    82  GLY82      -0.2714
    127  N        -41.7520   76.4510   64.4860 N.am   83  ASN83      -0.1972
    128  CA       -41.3060   76.4110   65.8810 C.3    83  ASN83       0.1688
    129  C        -41.8450   75.2090   66.6660 C.2    83  ASN83       0.2292
    130  O        -42.9350   74.7060   66.3820 O.2    83  ASN83      -0.2864
    131  CB       -41.5720   77.7500   66.5970 C.3    83  ASN83       0.1181
    132  CG       -43.0180   77.9170   67.0320 C.2    83  ASN83       0.2629
    133  OD1      -43.4390   77.3700   68.0500 O.2    83  ASN83      -0.2716
    134  ND2      -43.7790   78.7010   66.2750 N.am   83  ASN83      -0.0877
    135  N        -45.5190   75.4600   68.7880 N.3    86  ASP86      -0.1239
    136  CA       -46.7120   75.2140   67.9790 C.3    86  ASP86       0.1674
    137  C        -46.7550   73.7780   67.4670 C.2    86  ASP86       0.2266
    138  O        -47.8260   73.1860   67.3760 O.2    86  ASP86      -0.2867
    139  CB       -46.8050   76.2030   66.8120 C.3    86  ASP86       0.1410
    140  CG       -47.1170   77.6230   67.2660 C.2    86  ASP86       0.3668
    141  OD1      -47.7580   77.7970   68.3240 O.co2  86  ASP86      -0.2456
    142  OD2      -46.7220   78.5700   66.5540 O.co2  86  ASP86      -0.2456
    143  N        -36.6980   74.8760   66.3350 N.3   131  LEU131     -0.1245
    144  CA       -37.3410   74.6860   65.0420 C.3   131  LEU131      0.1561
    145  C        -37.3580   73.2160   64.6460 C.2   131  LEU131      0.2260
    146  O        -36.4150   72.4760   64.9400 O.2   131  LEU131     -0.2867
    147  CB       -36.6540   75.5390   63.9690 C.3   131  LEU131      0.0270
    148  CG       -36.7140   77.0650   64.1340 C.3   131  LEU131      0.0019
    149  CD1      -35.6930   77.7510   63.2390 C.3   131  LEU131      0.0001
    150  CD2      -38.1160   77.6160   63.8680 C.3   131  LEU131      0.0001
    151  N        -32.6630   77.6090   67.3960 N.3   141  ALA141     -0.1245
    152  CA       -32.4560   78.8700   66.6860 C.3   141  ALA141      0.1562
    153  C        -31.2200   79.5650   67.2530 C.2   141  ALA141      0.2260
    154  O        -31.0970   79.7310   68.4680 O.2   141  ALA141     -0.2867
    155  CB       -33.6810   79.7580   66.8090 C.3   141  ALA141      0.0290
    156  N        -29.5430   82.5940   65.9570 N.3   143  PHE143     -0.1241
    157  CA       -29.3080   83.8640   65.2900 C.3   143  PHE143      0.1605
    158  C        -28.8690   84.9350   66.2860 C.2   143  PHE143      0.2264
    159  O        -28.2220   85.9070   65.9050 O.2   143  PHE143     -0.2867
    160  CB       -30.5620   84.2670   64.5080 C.3   143  PHE143      0.0534
    161  CG       -31.3840   83.0810   64.0500 C.ar  143  PHE143     -0.0203
    162  CD1      -30.8400   82.1230   63.1880 C.ar  143  PHE143     -0.0042
    163  CD2      -32.6830   82.9030   64.5060 C.ar  143  PHE143     -0.0042
    164  CE1      -31.5870   81.0150   62.7800 C.ar  143  PHE143     -0.0003
    165  CE2      -33.4360   81.8020   64.1010 C.ar  143  PHE143     -0.0003
    166  CZ       -32.8890   80.8570   63.2370 C.ar  143  PHE143     -0.0000
@<TRIPOS>BOND
     1    40    41    1
     2    89    90    1
     3    89    86    1
     4    92    90   ar
     5    92    94   ar
     6    90    91   ar
     7    72    71    2
     8   110   108    1
     9    43    42    2
    10    42    41    1
    11    94    95   ar
    12    41    44    1
    13    91    93   ar
    14    95    93   ar
    15    85    86    1
    16    85    78   am
    17    69    70    1
    18    71    76   am
    19    71    70    1
    20    77    76    1
    21    77    78    1
    22    77    80    1
    23    86    87    1
    24    61    62    1
    25    63    64    2
    26    63    62    1
    27    88    87    2
    28   108   109    1
    29   108   105    1
    30    78    79    2
    31    70    73    1
    32    80    81    1
    33    62    65    1
    34     1     2    1
    35     8     6    1
    36    48    47    2
    37    87    96   am
    38    45    46    1
    39     6     7    1
    40     6     5    1
    41    35    36    2
    42    35    34    1
    43   105   104    1
    44   105   106    1
    45    47    46    1
    46   122   121    1
    47     2     5    1
    48     2     3    1
    49   104    98   am
    50   107   106    2
    51    46    49    1
    52    96    97    1
    53    84    82   ar
    54    73    74    1
    55    73    75    1
    56    81    82    1
    57    65    66    1
    58    65    67    1
    59   106   111   am
    60    34    33    1
    61    34    37    1
    62   121   119   ar
    63   121   120   ar
    64    98    97    1
    65    98    99    2
    66    82    83   ar
    67    66    68    1
    68    97   100    1
    69   119   117   ar
    70   120   118   ar
    71    38    37    1
    72     3     4    2
    73    49    50    1
    74   111   112    1
    75    37    39    1
    76   117   116   ar
    77   118   116   ar
    78   102   101    1
    79   102   103    1
    80   116   115    1
    81    50    51    1
    82   100   101    1
    83   112   115    1
    84   112   113    1
    85    59    58    1
    86   123   113   am
    87   123   124    1
    88   113   114    2
    89    56    57    2
    90    56    55    1
    91    51    52    1
    92   124   125    1
    93    10     9    1
    94    10    11    1
    95    55    58    1
    96    55    54    1
    97    58    60    1
    98   164   162   ar
    99   164   166   ar
   100    52    53    1
   101   162   161   ar
   102   166   165   ar
   103   149   148    1
   104    29    31   ar
   105    29    27   ar
   106    11    12    2
   107    11    13   am
   108   125   126    2
   109   125   127   am
   110    26    27    1
   111    26    23    1
   112   150   148    1
   113   147   148    1
   114   147   144    1
   115    25    24    2
   116    24    23    1
   117    31    32   ar
   118   161   163   ar
   119   161   160    1
   120   165   163   ar
   121    13    14    1
   122    27    28   ar
   123   127   128    1
   124   160   157    1
   125    23    22    1
   126    22    15   am
   127   145   146    2
   128   145   144    1
   129   144   143    1
   130   157   156    1
   131   157   158    1
   132    32    30   ar
   133    14    15    1
   134    14    17    1
   135    28    30   ar
   136    15    16    2
   137   128   131    1
   138   128   129    1
   139   159   158    2
   140    21    19   am
   141    18    17    1
   142    18    19    1
   143   134   132   am
   144   130   129    2
   145   142   140   ar
   146   131   132    1
   147   152   155    1
   148   152   153    1
   149   152   151    1
   150    19    20    2
   151   139   140    1
   152   139   136    1
   153   132   133    2
   154   153   154    2
   155   140   141   ar
   156   138   137    2
   157   137   136    1
   158   136   135    1
