@<TRIPOS>MOLECULE
tmp/3dk8A01.pdb
 100 92 0 0 0
SMALL
GASTEIGER

@<TRIPOS>ATOM
      1  N         14.9160   19.8620   25.3210 N.3    14  SER14      -0.1217
      2  CA        15.6800   20.7230   26.1970 C.3    14  SER14       0.1889
      3  C         15.2580   22.1640   26.1580 C.2    14  SER14       0.2288
      4  O         15.0620   22.8180   27.2080 O.2    14  SER14      -0.2866
      5  CB        17.2010   20.6120   25.7630 C.3    14  SER14       0.2089
      6  OG        17.6790   19.2910   25.9720 O.3    14  SER14      -0.2183
      7  N         11.2880   22.6750   27.2040 N.3    17  LEU17      -0.1231
      8  CA        11.1120   22.4560   28.6350 C.3    17  LEU17       0.1693
      9  C         11.6770   23.6020   29.4240 C.2    17  LEU17       0.2591
     10  O         11.0600   24.1550   30.3620 O.2    17  LEU17      -0.2718
     11  CB        11.7190   21.1320   29.1030 C.3    17  LEU17       0.0284
     12  CG        11.1380   19.8280   28.5750 C.3    17  LEU17       0.0019
     13  CD1       12.0190   18.6580   28.9690 C.3    17  LEU17       0.0001
     14  CD2        9.7230   19.6500   29.0910 C.3    17  LEU17       0.0001
     15  N         12.9210   23.9840   29.1280 N.am   18  ALA18      -0.1980
     16  CA        13.5780   24.9980   29.9290 C.3    18  ALA18       0.1597
     17  C         12.8580   26.3340   29.7590 C.2    18  ALA18       0.2287
     18  O         12.6880   27.0960   30.7520 O.2    18  ALA18      -0.2864
     19  CB        15.0370   25.1430   29.5440 C.3    18  ALA18       0.0319
     20  N          9.4240   26.2450   31.6460 N.3    21  ARG21      -0.1245
     21  CA         9.5750   26.2330   33.1120 C.3    21  ARG21       0.1563
     22  C          9.9710   27.6110   33.6290 C.2    21  ARG21       0.2260
     23  O          9.4530   28.0650   34.6530 O.2    21  ARG21      -0.2867
     24  CB        10.5860   25.1660   33.4920 C.3    21  ARG21       0.0307
     25  CG         9.8830   23.8090   33.3990 C.3    21  ARG21       0.0489
     26  CD         9.3950   23.4260   34.7990 C.3    21  ARG21       0.2205
     27  NE        10.3900   22.7800   35.5580 N.pl3  21  ARG21      -0.0865
     28  CZ        10.7760   22.3500   36.7250 C.cat  21  ARG21       0.5346
     29  NH1        9.9640   22.5710   37.7440 N.pl3  21  ARG21       0.1354
     30  NH2       11.9560   21.7100   36.8440 N.pl3  21  ARG21       0.1354
     31  N         11.4930   15.2280   27.2070 N.3    39  GLY39      -0.1225
     32  CA        12.9280   15.1470   27.2560 C.3    39  GLY39       0.1811
     33  C         13.6080   15.1910   25.9180 C.2    39  GLY39       0.2280
     34  O         14.8410   15.4230   25.8210 O.2    39  GLY39      -0.2866
     35  N         17.7770   14.9170   24.0050 N.3    42  CYS42      -0.1221
     36  CA        18.7020   14.8380   25.1190 C.3    42  CYS42       0.1808
     37  C         18.4440   13.5570   25.9330 C.2    42  CYS42       0.2601
     38  O         19.3550   12.7630   26.2130 O.2    42  CYS42      -0.2717
     39  CB        18.5860   16.0890   26.0250 C.3    42  CYS42       0.0970
     40  SG        19.6500   16.1910   27.4490 S.3    42  CYS42      -0.0800
     41  N         17.2100   13.3820   26.3440 N.am   43  VAL43      -0.1979
     42  CA        16.9040   12.2610   27.2560 C.3    43  VAL43       0.1595
     43  C         16.8300   10.9740   26.4790 C.2    43  VAL43       0.2287
     44  O         17.2550    9.9200   26.9820 O.2    43  VAL43      -0.2864
     45  CB        15.5510   12.5410   27.9550 C.3    43  VAL43       0.0276
     46  CG1       15.0080   11.2850   28.6230 C.3    43  VAL43       0.0022
     47  CG2       15.6900   13.7280   28.9220 C.3    43  VAL43       0.0022
     48  N         10.6460   14.5150   33.9750 N.3    98  TYR98      -0.1241
     49  CA        10.3030   15.7280   33.2510 C.3    98  TYR98       0.1605
     50  C          8.8160   15.9620   33.1330 C.2    98  TYR98       0.2264
     51  O          8.3720   17.1090   33.1320 O.2    98  TYR98      -0.2867
     52  CB        11.0570   15.7520   31.8530 C.3    98  TYR98       0.0534
     53  CG        12.5080   16.0850   32.1150 C.ar   98  TYR98      -0.0201
     54  CD1       13.5070   15.1340   32.0490 C.ar   98  TYR98      -0.0009
     55  CD2       12.9310   17.3710   32.5400 C.ar   98  TYR98      -0.0009
     56  CE1       14.8210   15.4160   32.3040 C.ar   98  TYR98       0.0417
     57  CE2       14.2550   17.6650   32.8390 C.ar   98  TYR98       0.0417
     58  CZ        15.2160   16.6830   32.7210 C.ar   98  TYR98       0.1957
     59  OH        16.5700   16.9240   33.0180 O.3    98  TYR98      -0.2866
     60  N          8.0630   17.5520   36.3680 N.3   101  ASN101     -0.1240
     61  CA         8.5250   18.9530   36.4230 C.3   101  ASN101      0.1653
     62  C          7.5570   19.8960   35.7980 C.2   101  ASN101      0.2266
     63  O          7.3230   20.9910   36.3270 O.2   101  ASN101     -0.2867
     64  CB         9.9250   19.0350   35.7830 C.3   101  ASN101      0.1155
     65  CG        11.0900   18.3890   36.4940 C.2   101  ASN101      0.2627
     66  OD1       12.2020   18.1890   35.9330 O.2   101  ASN101     -0.2716
     67  ND2       10.8980   18.0800   37.7340 N.am  101  ASN101     -0.0877
     68  N         22.6540   20.7450   24.0010 N.3   323  THR323     -0.1204
     69  CA        21.5710   20.8540   24.9930 C.3   323  THR323      0.1979
     70  C         21.6810   22.1400   25.8110 C.2   323  THR323      0.2459
     71  O         20.6720   22.8700   25.9230 O.2   323  THR323     -0.2732
     72  CB        21.4970   19.5900   25.8540 C.3   323  THR323      0.1783
     73  OG1       20.7110   18.6440   25.1330 O.3   323  THR323     -0.2211
     74  CG2       20.8740   19.8070   27.1900 C.3   323  THR323      0.0376
     75  N         22.8310   22.5040   26.3650 N.am  324  PRO324     -0.2728
     76  CA        22.8700   23.6970   27.2070 C.3   324  PRO324      0.1401
     77  C         22.6090   24.9750   26.4500 C.2   324  PRO324      0.2269
     78  O         22.2330   25.9990   27.0790 O.2   324  PRO324     -0.2865
     79  CB        24.2960   23.6590   27.7980 C.3   324  PRO324      0.0296
     80  CG        24.6570   22.2340   27.8320 C.3   324  PRO324      0.0237
     81  CD        24.0640   21.6740   26.5450 C.3   324  PRO324      0.0939
     82  N         18.8460   25.2510   26.1700 N.3   327  ILE327     -0.1245
     83  CA        18.3570   25.6060   27.4980 C.3   327  ILE327      0.1561
     84  C         18.5990   27.0800   27.7690 C.2   327  ILE327      0.2260
     85  O         17.6710   27.8000   28.2120 O.2   327  ILE327     -0.2867
     86  CB        18.9850   24.7050   28.5770 C.3   327  ILE327      0.0252
     87  CG1       18.4620   23.2540   28.4300 C.3   327  ILE327      0.0019
     88  CG2       18.7740   25.2650   29.9370 C.3   327  ILE327      0.0019
     89  CD1       19.0680   22.2870   29.3820 C.3   327  ILE327      0.0001
     90  N         15.8170   29.9700   28.2960 N.3   331  ARG331     -0.1245
     91  CA        15.6720   30.7400   29.5480 C.3   331  ARG331      0.1563
     92  C         15.8250   32.2340   29.3230 C.2   331  ARG331      0.2260
     93  O         15.0550   33.0250   29.8850 O.2   331  ARG331     -0.2867
     94  CB        16.6690   30.2330   30.5770 C.3   331  ARG331      0.0307
     95  CG        16.3320   28.8760   31.1450 C.3   331  ARG331      0.0489
     96  CD        17.4360   28.2890   31.9760 C.3   331  ARG331      0.2205
     97  NE        17.0370   27.0410   32.6200 N.pl3 331  ARG331     -0.0865
     98  CZ        17.8630   26.1480   33.1200 C.cat 331  ARG331      0.5346
     99  NH1       17.3840   25.0260   33.6610 N.pl3 331  ARG331      0.1354
    100  NH2       19.1720   26.3780   33.1320 N.pl3 331  ARG331      0.1354
@<TRIPOS>BOND
     1    68    69    1
     2    35    36    1
     3    69    70    1
     4    69    72    1
     5    36    37    1
     6    36    39    1
     7    73    72    1
     8     1     2    1
     9     5     6    1
    10     5     2    1
    11    70    71    2
    12    70    75   am
    13    34    33    2
    14    72    74    1
    15    33    32    1
    16    37    38    2
    17    37    41   am
    18    39    40    1
    19     3     2    1
    20     3     4    2
    21    82    83    1
    22    41    42    1
    23    75    81    1
    24    75    76    1
    25    77    78    2
    26    77    76    1
    27    43    44    2
    28    43    42    1
    29    81    80    1
    30     7     8    1
    31    31    32    1
    32    76    79    1
    33    42    45    1
    34    83    84    1
    35    83    86    1
    36    84    85    2
    37    79    80    1
    38    45    46    1
    39    45    47    1
    40    90    91    1
    41    87    86    1
    42    87    89    1
    43    12    13    1
    44    12    14    1
    45    12    11    1
    46    86    88    1
    47     8    11    1
    48     8     9    1
    49    15     9   am
    50    15    16    1
    51    92    91    1
    52    92    93    2
    53     9    10    2
    54    19    16    1
    55    91    94    1
    56    17    16    1
    57    17    18    2
    58    94    95    1
    59    95    96    1
    60    20    21    1
    61    52    53    1
    62    52    49    1
    63    96    97    1
    64    54    53   ar
    65    54    56   ar
    66    53    55   ar
    67    56    58   ar
    68    55    57   ar
    69    97    98    2
    70    58    57   ar
    71    58    59    1
    72    21    24    1
    73    21    22    1
    74    98   100    1
    75    98    99    1
    76    51    50    2
    77    50    49    1
    78    49    48    1
    79    25    24    1
    80    25    26    1
    81    22    23    2
    82    26    27    1
    83    27    28    2
    84    64    61    1
    85    64    65    1
    86    62    63    2
    87    62    61    1
    88    66    65    2
    89    60    61    1
    90    65    67   am
    91    28    30    1
    92    28    29    1
