@<TRIPOS>MOLECULE
tmp/3dkcA00.pdb
 179 171 0 0 0
SMALL
GASTEIGER

@<TRIPOS>ATOM
      1  N         16.5690   40.1850   23.2180 N.3    34  ILE34      -0.1231
      2  CA        16.6350   39.6580   21.8550 C.3    34  ILE34       0.1692
      3  C         15.2960   39.0020   21.5040 C.2    34  ILE34       0.2593
      4  O         14.7180   39.2800   20.4460 O.2    34  ILE34      -0.2718
      5  CB        17.8490   38.7190   21.6850 C.3    34  ILE34       0.0266
      6  CG1       19.1450   39.5040   21.9840 C.3    34  ILE34       0.0019
      7  CG2       17.8570   38.1140   20.2750 C.3    34  ILE34       0.0020
      8  CD1       20.4340   38.6870   21.9100 C.3    34  ILE34       0.0001
      9  N         14.7870   38.1620   22.4020 N.am   35  GLY35      -0.1942
     10  CA        13.4600   37.5810   22.2460 C.3    35  GLY35       0.2014
     11  C         13.1390   36.5390   23.3010 C.2    35  GLY35       0.2639
     12  O         13.9800   36.2150   24.1420 O.2    35  GLY35      -0.2714
     13  N         11.9240   36.0090   23.2430 N.am   36  ARG36      -0.1963
     14  CA        11.4790   34.9810   24.1750 C.3    36  ARG36       0.1729
     15  C         10.9830   33.7980   23.3720 C.2    36  ARG36       0.2617
     16  O         10.3430   33.9690   22.3280 O.2    36  ARG36      -0.2715
     17  CB        10.3480   35.4850   25.0840 C.3    36  ARG36       0.0348
     18  CG        10.7400   36.6610   25.9400 C.3    36  ARG36       0.0492
     19  CD         9.5780   37.2020   26.7710 C.3    36  ARG36       0.2205
     20  NE        10.0360   38.2420   27.6930 N.pl3  36  ARG36      -0.0865
     21  CZ        10.1750   39.5310   27.3820 C.cat  36  ARG36       0.5346
     22  NH1       10.6050   40.3870   28.2990 N.pl3  36  ARG36       0.1354
     23  NH2        9.8880   39.9710   26.1610 N.pl3  36  ARG36       0.1354
     24  N         11.2920   32.6050   23.8420 N.am   37  GLY37      -0.1940
     25  CA        10.7890   31.4130   23.1900 C.3    37  GLY37       0.2014
     26  C         10.0150   30.5360   24.1400 C.2    37  GLY37       0.2639
     27  O          9.3220   31.0300   25.0480 O.2    37  GLY37      -0.2714
     28  N         10.1440   29.2340   23.9370 N.am   38  HIS38      -0.1959
     29  CA         9.3370   28.2530   24.6490 C.3    38  HIS38       0.1787
     30  C          9.6410   28.1680   26.1340 C.2    38  HIS38       0.2620
     31  O          8.7500   27.8560   26.9370 O.2    38  HIS38      -0.2715
     32  CB         9.5130   26.8640   24.0270 C.3    38  HIS38       0.0785
     33  CG         8.7440   26.6720   22.7610 C.ar   38  HIS38       0.0821
     34  ND1        9.3420   26.6620   21.5160 N.ar   38  HIS38      -0.2267
     35  CD2        7.4170   26.4970   22.5400 C.ar   38  HIS38       0.1154
     36  CE1        8.4200   26.4830   20.5870 C.ar   38  HIS38       0.1986
     37  NE2        7.2440   26.3810   21.1810 N.ar   38  HIS38      -0.2212
     38  N         10.8930   28.4280   26.5000 N.am   39  PHE39      -0.1960
     39  CA        11.3600   28.1030   27.8470 C.3    39  PHE39       0.1771
     40  C         12.3890   29.0610   28.4100 C.2    39  PHE39       0.2620
     41  O         13.1090   28.7370   29.3660 O.2    39  PHE39      -0.2715
     42  CB        11.8670   26.6480   27.9280 C.3    39  PHE39       0.0574
     43  CG        12.9910   26.3170   26.9540 C.ar   39  PHE39      -0.0200
     44  CD1       14.3140   26.5810   27.2700 C.ar   39  PHE39      -0.0042
     45  CD2       12.7090   25.7280   25.7240 C.ar   39  PHE39      -0.0042
     46  CE1       15.3370   26.2850   26.3680 C.ar   39  PHE39      -0.0003
     47  CE2       13.7260   25.4290   24.8260 C.ar   39  PHE39      -0.0003
     48  CZ        15.0460   25.7090   25.1590 C.ar   39  PHE39      -0.0000
     49  N         12.4590   30.2560   27.8330 N.am   40  GLY40      -0.1954
     50  CA        13.4070   31.2410   28.3140 C.3    40  GLY40       0.1869
     51  C         13.4080   32.5510   27.5530 C.2    40  GLY40       0.2309
     52  O         12.7060   32.7170   26.5540 O.2    40  GLY40      -0.2863
     53  N         16.0750   35.6580   26.0640 N.3    42  VAL42      -0.1245
     54  CA        17.4320   35.9010   25.6320 C.3    42  VAL42       0.1561
     55  C         17.7200   37.3950   25.5950 C.2    42  VAL42       0.2260
     56  O         16.9550   38.1680   25.0230 O.2    42  VAL42      -0.2867
     57  CB        17.6770   35.3050   24.2340 C.3    42  VAL42       0.0252
     58  CG1       19.1060   35.5370   23.8070 C.3    42  VAL42       0.0019
     59  CG2       17.3580   33.8120   24.2430 C.3    42  VAL42       0.0019
     60  N         25.1760   36.3980   24.0980 N.3    58  ALA58      -0.1245
     61  CA        23.7450   36.3020   24.3430 C.3    58  ALA58       0.1562
     62  C         23.5770   35.5290   25.6460 C.2    58  ALA58       0.2260
     63  O         24.3010   34.5580   25.9060 O.2    58  ALA58      -0.2867
     64  CB        23.0390   35.5810   23.1850 C.3    58  ALA58       0.0290
     65  N         20.7730   33.6250   28.0740 N.3    60  LYS60      -0.1245
     66  CA        19.4230   33.0870   28.1330 C.3    60  LYS60       0.1561
     67  C         19.0420   32.6140   29.5400 C.2    60  LYS60       0.2260
     68  O         19.7160   31.7750   30.1440 O.2    60  LYS60      -0.2867
     69  CB        19.2600   31.9310   27.1370 C.3    60  LYS60       0.0271
     70  CG        17.8330   31.4260   27.0230 C.3    60  LYS60       0.0035
     71  CD        17.7240   30.3520   25.9310 C.3    60  LYS60       0.0206
     72  CE        16.2960   29.8240   25.7990 C.3    60  LYS60       0.1093
     73  NZ        16.1600   28.9740   24.5670 N.3    60  LYS60      -0.1314
     74  N         26.6040   25.1040   18.7370 N.3    90  LEU90      -0.1245
     75  CA        26.8040   26.3560   19.4630 C.3    90  LEU90       0.1561
     76  C         27.5310   26.0870   20.7920 C.2    90  LEU90       0.2260
     77  O         27.1130   25.2290   21.5660 O.2    90  LEU90      -0.2867
     78  CB        25.4530   27.0430   19.7450 C.3    90  LEU90       0.0270
     79  CG        25.5830   28.4460   20.3370 C.3    90  LEU90       0.0019
     80  CD1       26.3560   29.3610   19.3900 C.3    90  LEU90       0.0001
     81  CD2       24.1780   29.0040   20.6870 C.3    90  LEU90       0.0001
     82  N         26.0470   32.3420   25.9550 N.3   107  LEU107     -0.1231
     83  CA        26.2780   31.8340   24.6050 C.3   107  LEU107      0.1678
     84  C         27.0420   32.8540   23.7650 C.2   107  LEU107      0.2434
     85  O         26.8760   34.0490   23.9570 O.2   107  LEU107     -0.2733
     86  CB        24.9290   31.6260   23.9010 C.3   107  LEU107      0.0284
     87  CG        23.8710   30.8350   24.6970 C.3   107  LEU107      0.0019
     88  CD1       22.4590   30.9450   24.0880 C.3   107  LEU107      0.0001
     89  CD2       24.2890   29.3620   24.9070 C.3   107  LEU107      0.0001
     90  N         27.7990   32.3860   22.7580 N.am  108  PRO108     -0.2718
     91  CA        28.3620   33.3430   21.8080 C.3   108  PRO108      0.1535
     92  C         27.2230   34.0330   21.0860 C.2   108  PRO108      0.2599
     93  O         26.2160   33.3780   20.7670 O.2   108  PRO108     -0.2715
     94  CB        29.1280   32.4610   20.8050 C.3   108  PRO108      0.0310
     95  CG        29.2180   31.1170   21.4180 C.3   108  PRO108      0.0237
     96  CD        28.1280   30.9920   22.4400 C.3   108  PRO108      0.0939
     97  N         27.3640   35.3360   20.8380 N.am  109  TYR109     -0.1960
     98  CA        26.3600   36.0830   20.0970 C.3   109  TYR109      0.1771
     99  C         26.4490   35.6750   18.6320 C.2   109  TYR109      0.2619
    100  O         27.5280   35.6910   18.0340 O.2   109  TYR109     -0.2715
    101  CB        26.5920   37.6020   20.2020 C.3   109  TYR109      0.0574
    102  CG        25.5810   38.3800   19.4060 C.ar  109  TYR109     -0.0198
    103  CD1       24.2870   38.5580   19.8820 C.ar  109  TYR109     -0.0009
    104  CD2       25.9030   38.9050   18.1540 C.ar  109  TYR109     -0.0009
    105  CE1       23.3390   39.2680   19.1490 C.ar  109  TYR109      0.0417
    106  CE2       24.9680   39.6160   17.4160 C.ar  109  TYR109      0.0417
    107  CZ        23.7000   39.7910   17.9100 C.ar  109  TYR109      0.1957
    108  OH        22.7690   40.4800   17.1630 O.3   109  TYR109     -0.2866
    109  N         25.2960   35.3260   18.0670 N.am  110  MET110     -0.1977
    110  CA        25.2350   34.8490   16.6940 C.3   110  MET110      0.1605
    111  C         24.7930   35.9700   15.7830 C.2   110  MET110      0.2287
    112  O         23.6200   36.3270   15.7540 O.2   110  MET110     -0.2864
    113  CB        24.2760   33.6650   16.6150 C.3   110  MET110      0.0413
    114  CG        24.8170   32.4030   17.2790 C.3   110  MET110      0.0598
    115  SD        26.1530   31.6320   16.3210 S.3   110  MET110     -0.1393
    116  CE        27.6360   31.9000   17.2960 C.3   110  MET110      0.0692
    117  N         21.6910   35.4930   13.3360 N.3   113  GLY113     -0.1210
    118  CA        20.4220   35.0550   13.9050 C.3   113  GLY113      0.1956
    119  C         20.0980   33.6380   13.5130 C.2   113  GLY113      0.2611
    120  O         20.9940   32.8350   13.2690 O.2   113  GLY113     -0.2717
    121  N         18.8120   33.3210   13.4880 N.am  114  ASP114     -0.1973
    122  CA        18.4130   31.9420   13.2640 C.3   114  ASP114      0.1709
    123  C         18.2050   31.6020   11.7980 C.2   114  ASP114      0.2293
    124  O         17.8620   32.4560   10.9780 O.2   114  ASP114     -0.2864
    125  CB        17.1440   31.6180   14.0440 C.3   114  ASP114      0.1436
    126  CG        15.9350   32.3160   13.4780 C.2   114  ASP114      0.3671
    127  OD1       15.7390   33.5100   13.8050 O.co2 114  ASP114     -0.2456
    128  OD2       15.1980   31.6850   12.6950 O.co2 114  ASP114     -0.2456
    129  N         14.5680   32.4570   10.0180 N.3   117  ASN117     -0.1240
    130  CA        14.4840   33.8210    9.4870 C.3   117  ASN117      0.1653
    131  C         15.4460   34.0850    8.3280 C.2   117  ASN117      0.2266
    132  O         15.1260   34.8460    7.4100 O.2   117  ASN117     -0.2867
    133  CB        14.6750   34.8490   10.5970 C.3   117  ASN117      0.1155
    134  CG        13.4260   35.0220   11.4210 C.2   117  ASN117      0.2627
    135  OD1       12.3420   35.2450   10.8730 O.2   117  ASN117     -0.2716
    136  ND2       13.5560   34.9150   12.7340 N.am  117  ASN117     -0.0877
    137  N         14.6500   19.7240   21.1720 N.3   154  ASP154     -0.1239
    138  CA        13.9570   20.8900   20.5860 C.3   154  ASP154      0.1674
    139  C         14.6200   21.3260   19.2750 C.2   154  ASP154      0.2266
    140  O         14.8230   22.5000   19.0390 O.2   154  ASP154     -0.2867
    141  CB        13.9100   22.0540   21.5890 C.3   154  ASP154      0.1410
    142  CG        13.0250   23.2230   21.1220 C.2   154  ASP154      0.3668
    143  OD1       12.0940   23.0330   20.2920 O.co2 154  ASP154     -0.2456
    144  OD2       13.2760   24.3650   21.5860 O.co2 154  ASP154     -0.2456
    145  N         14.5200   27.1900   13.7640 N.3   158  ARG158     -0.1231
    146  CA        14.7270   28.3270   14.6770 C.3   158  ARG158      0.1694
    147  C         15.9240   28.1230   15.6230 C.2   158  ARG158      0.2592
    148  O         16.5170   29.0920   16.1010 O.2   158  ARG158     -0.2718
    149  CB        13.4520   28.6300   15.4720 C.3   158  ARG158      0.0321
    150  CG        13.0540   27.5360   16.4480 C.3   158  ARG158      0.0489
    151  CD        11.7360   27.8500   17.1760 C.3   158  ARG158      0.2205
    152  NE        11.3800   26.6840   17.9640 N.pl3 158  ARG158     -0.0865
    153  CZ        10.6700   25.6540   17.5100 C.cat 158  ARG158      0.5346
    154  NH1       10.1300   25.7120   16.2960 N.pl3 158  ARG158      0.1354
    155  NH2       10.4640   24.5880   18.2840 N.pl3 158  ARG158      0.1354
    156  N         16.2710   26.8650   15.8890 N.am  159  ASN159     -0.1974
    157  CA        17.3840   26.5660   16.8020 C.3   159  ASN159      0.1688
    158  C         18.6830   26.1920   16.1340 C.2   159  ASN159      0.2292
    159  O         19.5470   25.5460   16.7520 O.2   159  ASN159     -0.2864
    160  CB        16.9640   25.5300   17.8360 C.3   159  ASN159      0.1181
    161  CG        16.1930   26.1580   18.9670 C.2   159  ASN159      0.2629
    162  OD1       16.4180   27.3360   19.2850 O.2   159  ASN159     -0.2716
    163  ND2       15.2940   25.3960   19.6020 N.am  159  ASN159     -0.0877
    164  N         21.5890   28.4160   14.4640 N.3   161  MET161     -0.1245
    165  CA        21.9760   29.8190   14.4300 C.3   161  MET161      0.1570
    166  C         23.1260   29.9990   13.4680 C.2   161  MET161      0.2261
    167  O         23.8730   29.0620   13.2000 O.2   161  MET161     -0.2867
    168  CB        22.3780   30.2770   15.8240 C.3   161  MET161      0.0387
    169  CG        21.3660   29.9100   16.9270 C.3   161  MET161      0.0595
    170  SD        19.8320   30.8340   16.7700 S.3   161  MET161     -0.1393
    171  CE        20.4870   32.4600   17.0580 C.3   161  MET161      0.0692
    172  N         20.4970   25.2700   21.7020 N.3   172  ASP172     -0.1239
    173  CA        19.3920   24.9190   22.6130 C.3   172  ASP172      0.1674
    174  C         19.2310   23.4380   22.8800 C.2   172  ASP172      0.2266
    175  O         18.1970   22.9990   23.4010 O.2   172  ASP172     -0.2867
    176  CB        18.0650   25.5220   22.1530 C.3   172  ASP172      0.1410
    177  CG        17.7820   26.8540   22.8030 C.2   172  ASP172      0.3668
    178  OD1       18.1090   27.0030   24.0090 O.co2 172  ASP172     -0.2456
    179  OD2       17.2230   27.7530   22.1200 O.co2 172  ASP172     -0.2456
@<TRIPOS>BOND
     1   132   131    2
     2   131   130    1
     3   130   129    1
     4   130   133    1
     5   133   134    1
     6   135   134    2
     7   124   123    2
     8   134   136   am
     9   123   122    1
    10   128   126   ar
    11   167   166    2
    12   122   121    1
    13   122   125    1
    14   120   119    2
    15   117   118    1
    16   166   165    1
    17   126   127   ar
    18   126   125    1
    19   121   119   am
    20   119   118    1
    21   145   146    1
    22   165   164    1
    23   165   168    1
    24   146   149    1
    25   146   147    1
    26   149   150    1
    27   147   156   am
    28   147   148    2
    29   112   111    2
    30   111   110    1
    31   168   169    1
    32   156   157    1
    33   158   159    2
    34   158   157    1
    35   154   153    1
    36   115   114    1
    37   115   116    1
    38   150   151    1
    39   113   110    1
    40   113   114    1
    41   110   109    1
    42   170   169    1
    43   170   171    1
    44   157   160    1
    45   108   107    1
    46   151   152    1
    47   106   107   ar
    48   106   104   ar
    49   153   152    2
    50   153   155    1
    51   160   161    1
    52   107   105   ar
    53   100    99    2
    54   109    99   am
    55   104   102   ar
    56    99    98    1
    57    74    75    1
    58   161   162    2
    59   161   163   am
    60   140   139    2
    61   105   103   ar
    62   139   138    1
    63    80    79    1
    64   102   103   ar
    65   102   101    1
    66    75    78    1
    67    75    76    1
    68    78    79    1
    69    98   101    1
    70    98    97    1
    71     7     5    1
    72   143   142   ar
    73    79    81    1
    74     4     3    2
    75   138   137    1
    76   138   141    1
    77    36    37   ar
    78    36    34   ar
    79    93    92    2
    80    76    77    2
    81    94    95    1
    82    94    91    1
    83    97    92   am
    84    92    91    1
    85   142   144   ar
    86   142   141    1
    87    37    35   ar
    88    95    96    1
    89     3     2    1
    90     3     9   am
    91    34    33   ar
    92     5     2    1
    93     5     6    1
    94   172   173    1
    95    91    90    1
    96     2     1    1
    97     8     6    1
    98   179   177   ar
    99   176   173    1
   100   176   177    1
   101    10     9    1
   102    10    11    1
   103    16    15    2
   104    96    90    1
   105    35    33   ar
   106   173   174    1
   107    90    84   am
   108    33    32    1
   109   177   178   ar
   110   174   175    2
   111    64    61    1
   112    25    24    1
   113    25    26    1
   114    13    11   am
   115    13    14    1
   116    11    12    2
   117    15    24   am
   118    15    14    1
   119    84    85    2
   120    84    83    1
   121    58    57    1
   122    86    83    1
   123    86    87    1
   124    28    26   am
   125    28    29    1
   126    32    29    1
   127    88    87    1
   128    60    61    1
   129    26    27    2
   130    14    17    1
   131    57    59    1
   132    57    54    1
   133    61    62    1
   134    73    72    1
   135    83    82    1
   136    29    30    1
   137    87    89    1
   138    47    48   ar
   139    47    45   ar
   140    56    55    2
   141    17    18    1
   142    48    46   ar
   143    55    54    1
   144    54    53    1
   145    62    63    2
   146    45    43   ar
   147    72    71    1
   148    71    70    1
   149    18    19    1
   150    30    38   am
   151    30    31    2
   152    23    21    1
   153    46    44   ar
   154    38    39    1
   155    52    51    2
   156    19    20    1
   157    43    44   ar
   158    43    42    1
   159    70    69    1
   160    69    66    1
   161    21    20    2
   162    21    22    1
   163    51    50    1
   164    49    50    1
   165    49    40   am
   166    39    42    1
   167    39    40    1
   168    65    66    1
   169    66    67    1
   170    40    41    2
   171    67    68    2
