@<TRIPOS>MOLECULE
tmp/3dkfA00.pdb
 164 154 0 0 0
SMALL
GASTEIGER

@<TRIPOS>ATOM
      1  N         17.1910    4.0360  136.7900 N.3    35  ILE35      -0.1231
      2  CA        17.2430    4.7220  138.0870 C.3    35  ILE35       0.1692
      3  C         16.3170    5.9360  138.1450 C.2    35  ILE35       0.2593
      4  O         15.9840    6.4250  139.2270 O.2    35  ILE35      -0.2718
      5  CB        18.6960    5.1210  138.4880 C.3    35  ILE35       0.0266
      6  CG1       19.3670    5.9520  137.3870 C.3    35  ILE35       0.0019
      7  CG2       19.5160    3.8730  138.8320 C.3    35  ILE35       0.0020
      8  CD1       20.6320    6.6700  137.8290 C.3    35  ILE35       0.0001
      9  N         15.9070    6.4100  136.9730 N.am   36  GLY36      -0.1942
     10  CA        14.9970    7.5400  136.8540 C.3    36  GLY36       0.2014
     11  C         14.2900    7.5340  135.5140 C.2    36  GLY36       0.2638
     12  O         14.7360    6.8750  134.5740 O.2    36  GLY36      -0.2714
     13  N         13.1820    8.2650  135.4290 N.am   37  ARG37      -0.1977
     14  CA        12.4260    8.3840  134.1830 C.3    37  ARG37       0.1597
     15  C         11.7610    9.7530  134.0640 C.2    37  ARG37       0.2287
     16  O         11.0570   10.1980  134.9760 O.2    37  ARG37      -0.2864
     17  CB        11.3780    7.2710  134.0760 C.3    37  ARG37       0.0334
     18  CG        10.6440    7.2460  132.7560 C.3    37  ARG37       0.0492
     19  CD         9.4810    6.2810  132.8360 C.3    37  ARG37       0.2205
     20  NE         9.8960    4.8800  132.9510 N.pl3  37  ARG37      -0.0865
     21  CZ         9.2360    3.9620  133.6530 C.cat  37  ARG37       0.5346
     22  NH1        8.1370    4.3010  134.3180 N.pl3  37  ARG37       0.1354
     23  NH2        9.6730    2.7130  133.6960 N.pl3  37  ARG37       0.1354
     24  N         16.6030    7.4490  132.6780 N.3    43  VAL43      -0.1245
     25  CA        17.9120    7.6060  133.2950 C.3    43  VAL43       0.1561
     26  C         18.3860    6.2400  133.7840 C.2    43  VAL43       0.2260
     27  O         17.6460    5.5210  134.4550 O.2    43  VAL43      -0.2867
     28  CB        17.8930    8.6430  134.4540 C.3    43  VAL43       0.0252
     29  CG1       19.2970    8.8730  134.9970 C.3    43  VAL43       0.0019
     30  CG2       17.2960    9.9650  133.9860 C.3    43  VAL43       0.0019
     31  N         24.9200    9.0040  136.4760 N.3    54  ALA54      -0.1245
     32  CA        23.5660    8.8680  135.9570 C.3    54  ALA54       0.1562
     33  C         23.5710    9.2400  134.4810 C.2    54  ALA54       0.2260
     34  O         23.9980   10.3330  134.1050 O.2    54  ALA54      -0.2867
     35  CB        22.5930    9.7450  136.7400 C.3    54  ALA54       0.0290
     36  N         21.3510    9.8030  131.1800 N.3    56  LYS56      -0.1245
     37  CA        20.0260   10.0370  130.6270 C.3    56  LYS56       0.1561
     38  C         20.0380    9.8640  129.1120 C.2    56  LYS56       0.2260
     39  O         20.7740   10.5600  128.4060 O.2    56  LYS56      -0.2867
     40  CB        19.5050   11.4250  130.9980 C.3    56  LYS56       0.0271
     41  CG        18.0570   11.6330  130.5930 C.3    56  LYS56       0.0035
     42  CD        17.5380   12.9830  131.0020 C.3    56  LYS56       0.0206
     43  CE        16.0350   13.0240  130.8280 C.3    56  LYS56       0.1093
     44  NZ        15.5150   14.3760  131.0670 N.3    56  LYS56      -0.1314
     45  N         24.1670   20.6630  140.1890 N.3    86  LEU86      -0.1245
     46  CA        24.4300   19.4080  139.4940 C.3    86  LEU86       0.1561
     47  C         25.3330   19.7040  138.3030 C.2    86  LEU86       0.2260
     48  O         24.9710   20.4630  137.4110 O.2    86  LEU86      -0.2867
     49  CB        23.1270   18.7370  139.0260 C.3    86  LEU86       0.0270
     50  CG        23.2570   17.2750  138.5760 C.3    86  LEU86       0.0019
     51  CD1       23.6510   16.3860  139.7620 C.3    86  LEU86       0.0001
     52  CD2       21.9580   16.7970  137.9410 C.3    86  LEU86       0.0001
     53  N         25.5290   12.5580  134.0280 N.3   103  LEU103     -0.1231
     54  CA        25.4460   13.3960  135.2310 C.3   103  LEU103      0.1678
     55  C         26.0360   12.6510  136.4340 C.2   103  LEU103      0.2434
     56  O         26.0650   11.4250  136.4350 O.2   103  LEU103     -0.2733
     57  CB        23.9780   13.7590  135.5040 C.3   103  LEU103      0.0284
     58  CG        23.1610   14.3440  134.3420 C.3   103  LEU103      0.0019
     59  CD1       21.6730   14.2160  134.5860 C.3   103  LEU103      0.0001
     60  CD2       23.5280   15.7810  134.0690 C.3   103  LEU103      0.0001
     61  N         26.4970   13.3830  137.4680 N.am  104  PRO104     -0.2718
     62  CA        26.9320   12.6710  138.6710 C.3   104  PRO104      0.1535
     63  C         25.7680   11.9060  139.2830 C.2   104  PRO104      0.2599
     64  O         24.6230   12.3700  139.2290 O.2   104  PRO104     -0.2715
     65  CB        27.3870   13.7940  139.6090 C.3   104  PRO104      0.0310
     66  CG        27.6200   14.9630  138.7320 C.3   104  PRO104      0.0237
     67  CD        26.6320   14.8390  137.6190 C.3   104  PRO104      0.0939
     68  N         26.0580   10.7330  139.8360 N.am  105  TYR105     -0.1960
     69  CA        25.0680    9.9200  140.5100 C.3   105  TYR105      0.1771
     70  C         24.7690   10.5100  141.8890 C.2   105  TYR105      0.2619
     71  O         25.6820   10.7990  142.6680 O.2   105  TYR105     -0.2715
     72  CB        25.5640    8.4760  140.6510 C.3   105  TYR105      0.0574
     73  CG        24.5530    7.5350  141.2640 C.ar  105  TYR105     -0.0198
     74  CD1       23.5530    6.9500  140.4870 C.ar  105  TYR105     -0.0009
     75  CD2       24.6000    7.2220  142.6200 C.ar  105  TYR105     -0.0009
     76  CE1       22.6220    6.0840  141.0470 C.ar  105  TYR105      0.0417
     77  CE2       23.6720    6.3610  143.1880 C.ar  105  TYR105      0.0417
     78  CZ        22.6870    5.7960  142.3950 C.ar  105  TYR105      0.1957
     79  OH        21.7670    4.9400  142.9600 O.3   105  TYR105     -0.2866
     80  N         23.4840   10.6650  142.1830 N.am  106  MET106     -0.1977
     81  CA        23.0380   11.2280  143.4620 C.3   106  MET106      0.1605
     82  C         22.4810   10.1350  144.3830 C.2   106  MET106      0.2287
     83  O         21.3240    9.7150  144.2340 O.2   106  MET106     -0.2864
     84  CB        21.9980   12.3210  143.1950 C.3   106  MET106      0.0413
     85  CG        22.5410   13.4840  142.3710 C.3   106  MET106      0.0598
     86  SD        23.5900   14.5770  143.3570 S.3   106  MET106     -0.1393
     87  CE        25.2050   14.3440  142.6380 C.3   106  MET106      0.0692
     88  N         19.0800   10.7040  146.0270 N.3   109  GLY109     -0.1210
     89  CA        17.9910   11.0310  145.1140 C.3   109  GLY109      0.1956
     90  C         17.5640   12.4720  145.2600 C.2   109  GLY109      0.2611
     91  O         18.3640   13.3290  145.6360 O.2   109  GLY109     -0.2717
     92  N         16.2910   12.7330  144.9830 N.am  110  ASP110     -0.1973
     93  CA        15.7760   14.0870  145.0720 C.3   110  ASP110      0.1709
     94  C         15.4500   14.5150  146.4920 C.2   110  ASP110      0.2293
     95  O         15.0640   13.7040  147.3580 O.2   110  ASP110     -0.2864
     96  CB        14.5710   14.2790  144.1540 C.3   110  ASP110      0.1436
     97  CG        13.3420   13.5960  144.6810 C.2   110  ASP110      0.3671
     98  OD1       13.2000   12.3760  144.4440 O.co2 110  ASP110     -0.2456
     99  OD2       12.5290   14.2780  145.3480 O.co2 110  ASP110     -0.2456
    100  N         11.7430   13.6280  148.1590 N.3   113  ASN113     -0.1240
    101  CA        11.5580   12.2600  148.6380 C.3   113  ASN113      0.1653
    102  C         12.4500   11.9260  149.8270 C.2   113  ASN113      0.2266
    103  O         12.0440   11.1870  150.7230 O.2   113  ASN113     -0.2867
    104  CB        11.7090   11.2530  147.5060 C.3   113  ASN113      0.1155
    105  CG        10.4840   11.2200  146.6060 C.2   113  ASN113      0.2627
    106  OD1        9.3570   11.2070  147.0910 O.2   113  ASN113     -0.2716
    107  ND2       10.7020   11.2310  145.2920 N.am  113  ASN113     -0.0877
    108  N         11.6360   18.8400  144.7150 N.3   154  ARG154     -0.1231
    109  CA        11.7050   17.7190  143.7640 C.3   154  ARG154      0.1694
    110  C         12.8230   17.8780  142.7170 C.2   154  ARG154      0.2592
    111  O         13.2360   16.8820  142.1160 O.2   154  ARG154     -0.2718
    112  CB        10.3550   17.5290  143.0260 C.3   154  ARG154      0.0321
    113  CG        10.0070   18.6820  142.0640 C.3   154  ARG154      0.0489
    114  CD         8.6610   18.5270  141.3280 C.3   154  ARG154      0.2205
    115  NE         8.3350   19.7980  140.6630 N.pl3 154  ARG154     -0.0865
    116  CZ         7.6850   20.8060  141.2470 C.cat 154  ARG154      0.5346
    117  NH1        7.2400   20.6880  142.4950 N.pl3 154  ARG154      0.1354
    118  NH2        7.4600   21.9300  140.5810 N.pl3 154  ARG154      0.1354
    119  N         13.2870   19.1170  142.5010 N.am  155  ASN155     -0.1974
    120  CA        14.2700   19.4380  141.4470 C.3   155  ASN155      0.1688
    121  C         15.6920   19.6790  141.9560 C.2   155  ASN155      0.2292
    122  O         16.5880   20.0640  141.1930 O.2   155  ASN155     -0.2864
    123  CB        13.7610   20.5920  140.5690 C.3   155  ASN155      0.1181
    124  CG        12.5450   20.1820  139.7530 C.2   155  ASN155      0.2629
    125  OD1       12.4190   19.0090  139.3860 O.2   155  ASN155     -0.2716
    126  ND2       11.6230   21.1280  139.5030 N.am  155  ASN155     -0.0877
    127  N         18.8230   17.6640  144.3010 N.3   157  MET157     -0.1245
    128  CA        19.2330   16.2930  144.5670 C.3   157  MET157      0.1570
    129  C         20.2670   16.2590  145.6970 C.2   157  MET157      0.2261
    130  O         20.8720   17.2880  146.0180 O.2   157  MET157     -0.2867
    131  CB        19.7050   15.6010  143.2920 C.3   157  MET157      0.0387
    132  CG        18.6390   15.6460  142.1810 C.3   157  MET157      0.0595
    133  SD        18.9210   14.4890  140.8580 S.3   157  MET157     -0.1393
    134  CE        18.3540   12.9560  141.5940 C.3   157  MET157      0.0692
    135  N         19.3750   21.0420  140.5700 N.3   167  ALA167     -0.1231
    136  CA        19.3860   20.2430  139.3540 C.3   167  ALA167      0.1694
    137  C         18.2670   20.6730  138.4000 C.2   167  ALA167      0.2592
    138  O         17.8440   21.8300  138.4250 O.2   167  ALA167     -0.2718
    139  CB        19.2890   18.7550  139.6990 C.3   167  ALA167      0.0304
    140  N         17.8150   19.7520  137.5500 N.am  168  ASP168     -0.1974
    141  CA        16.7160   20.0270  136.6140 C.3   168  ASP168      0.1709
    142  C         16.9170   21.3280  135.8050 C.2   168  ASP168      0.2293
    143  O         16.0800   22.2350  135.8280 O.2   168  ASP168     -0.2864
    144  CB        15.3780   20.0330  137.3700 C.3   168  ASP168      0.1436
    145  CG        14.2160   20.3840  136.4780 C.2   168  ASP168      0.3671
    146  OD1       13.4380   21.2890  136.8370 O.co2 168  ASP168     -0.2456
    147  OD2       14.1300   19.7880  135.3970 O.co2 168  ASP168     -0.2456
    148  N         19.5340   18.5560  131.5910 N.3   172  ALA172     -0.1245
    149  CA        18.8730   17.7150  132.5830 C.3   172  ALA172      0.1562
    150  C         17.4170   18.1370  132.8390 C.2   172  ALA172      0.2260
    151  O         16.7100   17.4980  133.6200 O.2   172  ALA172     -0.2867
    152  CB        19.6750   17.7140  133.8800 C.3   172  ALA172      0.0290
    153  N         10.1740   14.8940  136.1970 N.3   176  TYR176     -0.1241
    154  CA        10.7170   13.5960  136.6040 C.3   176  TYR176      0.1605
    155  C          9.7540   12.7370  137.4240 C.2   176  TYR176      0.2264
    156  O          8.8710   13.2650  138.0940 O.2   176  TYR176     -0.2867
    157  CB        12.0290   13.7960  137.3640 C.3   176  TYR176      0.0534
    158  CG        13.1870   14.1390  136.4570 C.ar  176  TYR176     -0.0201
    159  CD1       13.6290   15.4510  136.3230 C.ar  176  TYR176     -0.0009
    160  CD2       13.8270   13.1470  135.7210 C.ar  176  TYR176     -0.0009
    161  CE1       14.7030   15.7660  135.4850 C.ar  176  TYR176      0.0417
    162  CE2       14.8820   13.4440  134.8860 C.ar  176  TYR176      0.0417
    163  CZ        15.3160   14.7510  134.7680 C.ar  176  TYR176      0.1957
    164  OH        16.3650   15.0170  133.9260 O.3   176  TYR176     -0.2866
@<TRIPOS>BOND
     1    39    38    2
     2    38    37    1
     3    41    40    1
     4    41    42    1
     5    37    40    1
     6    37    36    1
     7    43    42    1
     8    43    44    1
     9   148   149    1
    10   149   150    1
    11   149   152    1
    12    24    25    1
    13    18    19    1
    14    18    17    1
    15    19    20    1
    16   150   151    2
    17    20    21    2
    18    25    26    1
    19    25    28    1
    20    21    23    1
    21    21    22    1
    22    26    27    2
    23   164   163    1
    24    30    28    1
    25    53    54    1
    26    15    14    1
    27    15    16    2
    28    60    58    1
    29    17    14    1
    30    34    33    2
    31    14    13    1
    32    58    59    1
    33    58    57    1
    34    28    29    1
    35    33    32    1
    36    12    11    2
    37   163   162   ar
    38   163   161   ar
    39   162   160   ar
    40    54    57    1
    41    54    55    1
    42   147   145   ar
    43    13    11   am
    44   161   159   ar
    45    11    10    1
    46   160   158   ar
    47   142   143    2
    48   142   141    1
    49    32    31    1
    50    32    35    1
    51   153   154    1
    52   159   158   ar
    53    55    56    2
    54    55    61   am
    55   158   157    1
    56   145   146   ar
    57   145   144    1
    58   154   157    1
    59   154   155    1
    60   141   144    1
    61   141   140    1
    62     1     2    1
    63    10     9    1
    64     9     3   am
    65     6     8    1
    66     6     5    1
    67    48    47    2
    68   155   156    2
    69    61    67    1
    70    61    62    1
    71   140   137   am
    72    67    66    1
    73    52    50    1
    74     2     3    1
    75     2     5    1
    76     3     4    2
    77    47    46    1
    78   137   138    2
    79   137   136    1
    80     5     7    1
    81    50    49    1
    82    50    51    1
    83    62    63    1
    84    62    65    1
    85    66    65    1
    86    49    46    1
    87    64    63    2
    88    63    68   am
    89   136   139    1
    90   136   135    1
    91   125   124    2
    92    46    45    1
    93   126   124   am
    94   124   123    1
    95    68    69    1
    96    74    76   ar
    97    74    73   ar
    98    69    72    1
    99    69    70    1
   100   123   120    1
   101   118   116    1
   102    72    73    1
   103   115   116    2
   104   115   114    1
   105   133   134    1
   106   133   132    1
   107    76    78   ar
   108   122   121    2
   109   116   117    1
   110    73    75   ar
   111   114   113    1
   112   120   121    1
   113   120   119    1
   114    70    80   am
   115    70    71    2
   116   113   112    1
   117   111   110    2
   118   132   131    1
   119    80    81    1
   120    85    84    1
   121    85    86    1
   122    78    79    1
   123    78    77   ar
   124   119   110   am
   125    75    77   ar
   126    87    86    1
   127   110   109    1
   128   112   109    1
   129    84    81    1
   130   131   128    1
   131    81    82    1
   132   109   108    1
   133    96    97    1
   134    96    93    1
   135    83    82    2
   136   127   128    1
   137    98    97   ar
   138   128   129    1
   139    97    99   ar
   140    92    93    1
   141    92    90   am
   142    93    94    1
   143    89    90    1
   144    89    88    1
   145    90    91    2
   146   107   105   am
   147   129   130    2
   148    94    95    2
   149   105   106    2
   150   105   104    1
   151   104   101    1
   152   100   101    1
   153   101   102    1
   154   102   103    2
