@<TRIPOS>MOLECULE
tmp/3dkhB01.pdb
 197 193 0 0 0
SMALL
GASTEIGER

@<TRIPOS>ATOM
      1  N         18.4350  -24.1650   21.5860 N.3    41  GLU41      -0.1245
      2  CA        16.9990  -24.2780   21.3530 C.3    41  GLU41       0.1567
      3  C         16.5110  -25.5400   22.0540 C.2    41  GLU41       0.2260
      4  O         16.9830  -26.6440   21.7680 O.2    41  GLU41      -0.2867
      5  CB        16.7120  -24.3510   19.8500 C.3    41  GLU41       0.0388
      6  CG        15.3110  -23.9060   19.4520 C.3    41  GLU41       0.1160
      7  CD        15.2310  -23.4640   18.0000 C.2    41  GLU41       0.3649
      8  OE1       16.1510  -22.7570   17.5320 O.co2  41  GLU41      -0.2457
      9  OE2       14.2500  -23.8170   17.3180 O.co2  41  GLU41      -0.2457
     10  N          6.1650  -25.1930   24.3760 N.3    54  GLU54      -0.1231
     11  CA         6.5380  -25.8000   23.0910 C.3    54  GLU54       0.1699
     12  C          8.0210  -25.6250   22.7280 C.2    54  GLU54       0.2592
     13  O          8.7140  -26.6060   22.4730 O.2    54  GLU54      -0.2718
     14  CB         5.6720  -25.2270   21.9540 C.3    54  GLU54       0.0402
     15  CG         5.8580  -25.9450   20.6170 C.3    54  GLU54       0.1161
     16  CD         5.4890  -25.1090   19.3990 C.2    54  GLU54       0.3649
     17  OE1        4.3030  -24.7540   19.2340 O.co2  54  GLU54      -0.2457
     18  OE2        6.3890  -24.8450   18.5740 O.co2  54  GLU54      -0.2457
     19  N          8.4890  -24.3770   22.7350 N.am   55  LYS55      -0.1980
     20  CA         9.8680  -24.0460   22.3700 C.3    55  LYS55       0.1596
     21  C         10.3860  -22.8180   23.1040 C.2    55  LYS55       0.2287
     22  O          9.6580  -21.8480   23.3200 O.2    55  LYS55      -0.2864
     23  CB         9.9490  -23.7860   20.8580 C.3    55  LYS55       0.0298
     24  CG        11.3520  -23.6120   20.2830 C.3    55  LYS55       0.0038
     25  CD        11.3050  -23.1760   18.8180 C.3    55  LYS55       0.0206
     26  CE        10.8590  -24.2890   17.8540 C.3    55  LYS55       0.1093
     27  NZ        11.8570  -25.3970   17.7030 N.3    55  LYS55      -0.1314
     28  N         14.3330  -20.5060   23.7610 N.3    57  MET57      -0.1245
     29  CA        15.7060  -20.2590   23.3270 C.3    57  MET57       0.1570
     30  C         16.3830  -19.8240   24.6050 C.2    57  MET57       0.2261
     31  O         15.9280  -18.8850   25.2460 O.2    57  MET57      -0.2867
     32  CB        15.7390  -19.1840   22.2440 C.3    57  MET57       0.0387
     33  CG        15.1270  -19.6890   20.9470 C.3    57  MET57       0.0595
     34  SD        14.9480  -18.5460   19.5980 S.3    57  MET57      -0.1393
     35  CE        13.9040  -19.5430   18.5460 C.3    57  MET57       0.0692
     36  N         17.6280  -22.5130   13.4790 N.3    86  THR86      -0.1203
     37  CA        17.4830  -21.6050   12.3330 C.3    86  THR86       0.1994
     38  C         17.7930  -20.1270   12.5650 C.2    86  THR86       0.2617
     39  O         18.4270  -19.4810   11.7260 O.2    86  THR86      -0.2717
     40  CB        16.0610  -21.6870   11.7380 C.3    86  THR86       0.1784
     41  OG1       15.1060  -21.2930   12.7290 O.3    86  THR86      -0.2211
     42  CG2       15.7430  -23.0930   11.2700 C.3    86  THR86       0.0376
     43  N         17.3200  -19.6000   13.6930 N.am   87  ASN87      -0.1974
     44  CA        17.4860  -18.1950   14.0670 C.3    87  ASN87       0.1688
     45  C         18.8910  -17.6310   14.1530 C.2    87  ASN87       0.2292
     46  O         19.8270  -18.3010   14.6000 O.2    87  ASN87      -0.2864
     47  CB        16.8620  -17.9340   15.4310 C.3    87  ASN87       0.1181
     48  CG        15.3710  -17.8160   15.3990 C.2    87  ASN87       0.2629
     49  OD1       14.7920  -17.3440   16.3710 O.2    87  ASN87      -0.2716
     50  ND2       14.7280  -18.2600   14.3260 N.am   87  ASN87      -0.0877
     51  N         17.0430  -10.0070   17.7460 N.3   140  PHE140     -0.1241
     52  CA        16.6490  -10.7150   16.5290 C.3   140  PHE140      0.1605
     53  C         15.1220  -10.8360   16.6100 C.2   140  PHE140      0.2264
     54  O         14.5920  -11.8470   17.0780 O.2   140  PHE140     -0.2867
     55  CB        17.3270  -12.0910   16.4760 C.3   140  PHE140      0.0534
     56  CG        17.1680  -12.8030   15.1550 C.ar  140  PHE140     -0.0203
     57  CD1       17.9460  -12.4320   14.0450 C.ar  140  PHE140     -0.0042
     58  CD2       16.2580  -13.8670   15.0210 C.ar  140  PHE140     -0.0042
     59  CE1       17.8250  -13.1230   12.8050 C.ar  140  PHE140     -0.0003
     60  CE2       16.1240  -14.5580   13.7970 C.ar  140  PHE140     -0.0003
     61  CZ        16.9110  -14.1900   12.6850 C.ar  140  PHE140     -0.0000
     62  N         11.5020  -15.7110   23.9480 N.3   146  ASN146     -0.1240
     63  CA        11.6310  -17.1660   24.0470 C.3   146  ASN146      0.1653
     64  C         12.5220  -17.5150   25.2370 C.2   146  ASN146      0.2266
     65  O         12.4500  -18.6220   25.7620 O.2   146  ASN146     -0.2867
     66  CB        12.1990  -17.7620   22.7500 C.3   146  ASN146      0.1155
     67  CG        11.2420  -17.6320   21.5630 C.2   146  ASN146      0.2627
     68  OD1       10.0170  -17.6080   21.7270 O.2   146  ASN146     -0.2716
     69  ND2       11.8030  -17.5590   20.3580 N.am  146  ASN146     -0.0877
     70  N          2.9430  -19.4940   24.4680 N.3   177  ARG177     -0.1231
     71  CA         3.1770  -19.4660   23.0220 C.3   177  ARG177      0.1694
     72  C          4.5170  -18.7780   22.7450 C.2   177  ARG177      0.2591
     73  O          4.8750  -17.8070   23.4230 O.2   177  ARG177     -0.2718
     74  CB         2.0520  -18.7090   22.3100 C.3   177  ARG177      0.0321
     75  CG         0.6830  -19.3820   22.3380 C.3   177  ARG177      0.0489
     76  CD         0.4750  -20.3180   21.1480 C.3   177  ARG177      0.2205
     77  NE         0.3760  -19.5850   19.8840 N.pl3 177  ARG177     -0.0865
     78  CZ         0.2100  -20.1400   18.6830 C.cat 177  ARG177      0.5346
     79  NH1        0.1200  -21.4580   18.5450 N.pl3 177  ARG177      0.1354
     80  NH2        0.1250  -19.3660   17.6080 N.pl3 177  ARG177      0.1354
     81  N          5.2560  -19.2960   21.7640 N.am  178  ALA178     -0.1980
     82  CA         6.5670  -18.7640   21.3800 C.3   178  ALA178      0.1597
     83  C          6.4600  -17.3900   20.7290 C.2   178  ALA178      0.2287
     84  O          5.4200  -17.0480   20.1650 O.2   178  ALA178     -0.2864
     85  CB         7.2870  -19.7340   20.4630 C.3   178  ALA178      0.0319
     86  N          7.7820  -15.9220   17.9440 N.3   180  ASP180     -0.1225
     87  CA         7.5390  -15.8120   16.5000 C.3   180  ASP180      0.1805
     88  C          6.0860  -16.0590   16.1300 C.2   180  ASP180      0.2597
     89  O          5.5980  -15.5100   15.1390 O.2   180  ASP180     -0.2718
     90  CB         8.4590  -16.7360   15.7000 C.3   180  ASP180      0.1424
     91  CG         9.9060  -16.2730   15.7160 C.2   180  ASP180      0.3668
     92  OD1       10.1790  -15.1410   15.2530 O.co2 180  ASP180     -0.2456
     93  OD2       10.7680  -17.0380   16.2000 O.co2 180  ASP180     -0.2456
     94  N          5.3950  -16.8460   16.9610 N.am  181  ASP181     -0.1974
     95  CA         3.9710  -17.1440   16.7700 C.3   181  ASP181      0.1709
     96  C          3.1360  -15.9520   17.2470 C.2   181  ASP181      0.2293
     97  O          2.1290  -15.6060   16.6310 O.2   181  ASP181     -0.2864
     98  CB         3.5580  -18.4180   17.5230 C.3   181  ASP181      0.1436
     99  CG         3.8600  -19.6960   16.7430 C.2   181  ASP181      0.3671
    100  OD1        3.6380  -19.7220   15.5080 O.co2 181  ASP181     -0.2456
    101  OD2        4.3070  -20.6850   17.3730 O.co2 181  ASP181     -0.2456
    102  N          3.2860  -12.9920   14.8150 N.3   184  HIS184     -0.1241
    103  CA         2.3500  -13.2830   13.7280 C.3   184  HIS184      0.1621
    104  C          0.9110  -13.0100   14.1800 C.2   184  HIS184      0.2264
    105  O          0.0910  -12.5510   13.3870 O.2   184  HIS184     -0.2867
    106  CB         2.4860  -14.7390   13.2510 C.3   184  HIS184      0.0745
    107  CG         1.4690  -15.1300   12.2180 C.ar  184  HIS184      0.0817
    108  ND1        1.2940  -14.4280   11.0450 N.ar  184  HIS184     -0.2268
    109  CD2        0.5150  -16.0920   12.2260 C.ar  184  HIS184      0.1154
    110  CE1        0.2740  -14.9350   10.3780 C.ar  184  HIS184      0.1986
    111  NE2       -0.2170  -15.9460   11.0730 N.ar  184  HIS184     -0.2212
    112  N         19.1260   -7.3120    7.4350 N.3   383  TRP383     -0.1241
    113  CA        20.0020   -8.2410    8.1540 C.3   383  TRP383      0.1605
    114  C         21.2510   -8.5790    7.3500 C.2   383  TRP383      0.2264
    115  O         22.3060   -8.8600    7.9220 O.2   383  TRP383     -0.2867
    116  CB        19.2490   -9.5370    8.4670 C.3   383  TRP383      0.0550
    117  CG        18.2720   -9.4600    9.6270 C.ar  383  TRP383      0.0003
    118  CD1       18.2610   -8.5410   10.6460 C.ar  383  TRP383      0.0946
    119  CD2       17.1980  -10.3700    9.9020 C.ar  383  TRP383      0.0152
    120  NE1       17.2560   -8.8240   11.5360 N.ar  383  TRP383     -0.2442
    121  CE2       16.5840   -9.9390   11.1110 C.ar  383  TRP383      0.0810
    122  CE3       16.6900  -11.5090    9.2470 C.ar  383  TRP383      0.0012
    123  CZ2       15.4730  -10.6140   11.6870 C.ar  383  TRP383      0.0191
    124  CZ3       15.5800  -12.1850    9.8140 C.ar  383  TRP383      0.0001
    125  CH2       14.9850  -11.7250   11.0290 C.ar  383  TRP383      0.0015
    126  N         26.8730  -14.8800    7.7380 N.3   542  TRP542     -0.1241
    127  CA        25.4220  -14.7510    7.7640 C.3   542  TRP542      0.1605
    128  C         24.8420  -14.7260    6.3520 C.2   542  TRP542      0.2264
    129  O         23.7670  -15.2830    6.1100 O.2   542  TRP542     -0.2867
    130  CB        25.0100  -13.4860    8.5470 C.3   542  TRP542      0.0550
    131  CG        23.5310  -13.1900    8.5360 C.ar  542  TRP542      0.0003
    132  CD1       22.9050  -12.1960    7.8390 C.ar  542  TRP542      0.0946
    133  CD2       22.4950  -13.9410    9.1780 C.ar  542  TRP542      0.0152
    134  NE1       21.5450  -12.2820    7.9980 N.ar  542  TRP542     -0.2442
    135  CE2       21.2610  -13.3420    8.8160 C.ar  542  TRP542      0.0810
    136  CE3       22.4810  -15.0680   10.0230 C.ar  542  TRP542      0.0012
    137  CZ2       20.0190  -13.8300    9.2770 C.ar  542  TRP542      0.0191
    138  CZ3       21.2430  -15.5600   10.4810 C.ar  542  TRP542      0.0001
    139  CH2       20.0300  -14.9380   10.1070 C.ar  542  TRP542      0.0015
    140  N         21.9970  -17.3690    5.2760 N.3   546  TRP546     -0.1241
    141  CA        20.6270  -16.9710    4.9080 C.3   546  TRP546      0.1605
    142  C         19.8900  -17.7170    3.7640 C.2   546  TRP546      0.2264
    143  O         18.7050  -18.0340    3.9290 O.2   546  TRP546     -0.2867
    144  CB        20.4750  -15.4290    4.8260 C.3   546  TRP546      0.0550
    145  CG        19.0360  -14.9220    4.6630 C.ar  546  TRP546      0.0003
    146  CD1       18.4840  -14.3850    3.5320 C.ar  546  TRP546      0.0946
    147  CD2       17.9790  -14.9600    5.6380 C.ar  546  TRP546      0.0152
    148  NE1       17.1570  -14.0990    3.7320 N.ar  546  TRP546     -0.2442
    149  CE2       16.8140  -14.4400    5.0120 C.ar  546  TRP546      0.0810
    150  CE3       17.8960  -15.3870    6.9830 C.ar  546  TRP546      0.0012
    151  CZ2       15.5710  -14.3350    5.6820 C.ar  546  TRP546      0.0191
    152  CZ3       16.6550  -15.2840    7.6590 C.ar  546  TRP546      0.0001
    153  CH2       15.5100  -14.7610    6.9980 C.ar  546  TRP546      0.0015
    154  N         18.1260  -20.8810    5.0280 N.3   549  ASN549     -0.1240
    155  CA        17.0950  -20.7390    6.0580 C.3   549  ASN549      0.1653
    156  C         15.7350  -21.1460    5.4690 C.2   549  ASN549      0.2266
    157  O         15.3530  -20.6510    4.4060 O.2   549  ASN549     -0.2867
    158  CB        17.0480  -19.2960    6.5820 C.3   549  ASN549      0.1155
    159  CG        16.3160  -19.1750    7.9140 C.2   549  ASN549      0.2627
    160  OD1       15.3780  -18.3880    8.0590 O.2   549  ASN549     -0.2716
    161  ND2       16.7440  -19.9600    8.8930 N.am  549  ASN549     -0.0877
    162  N         12.8390  -20.5580    6.7170 N.3   551  TYR551     -0.1228
    163  CA        11.8570  -19.5650    7.1450 C.3   551  TYR551      0.1721
    164  C         12.1330  -18.1530    6.6110 C.2   551  TYR551      0.2437
    165  O         13.2920  -17.8000    6.3490 O.2   551  TYR551     -0.2733
    166  CB        11.8330  -19.4810    8.6840 C.3   551  TYR551      0.0547
    167  CG        11.5540  -20.7690    9.4400 C.ar  551  TYR551     -0.0200
    168  CD1       10.4680  -21.6130    9.0960 C.ar  551  TYR551     -0.0009
    169  CD2       12.3310  -21.1120   10.5640 C.ar  551  TYR551     -0.0009
    170  CE1       10.1620  -22.7710    9.8710 C.ar  551  TYR551      0.0417
    171  CE2       12.0360  -22.2570   11.3440 C.ar  551  TYR551      0.0417
    172  CZ        10.9540  -23.0770   10.9940 C.ar  551  TYR551      0.1957
    173  OH        10.6730  -24.1770   11.7690 O.3   551  TYR551     -0.2866
    174  N         11.0640  -17.3600    6.3550 N.am  552  PRO552     -0.2718
    175  CA        11.2650  -15.9880    5.8630 C.3   552  PRO552      0.1535
    176  C         11.3080  -14.9650    7.0200 C.2   552  PRO552      0.2598
    177  O         11.2010  -15.3320    8.1950 O.2   552  PRO552     -0.2715
    178  CB        10.0470  -15.7730    4.9660 C.3   552  PRO552      0.0310
    179  CG         8.9750  -16.5310    5.6740 C.3   552  PRO552      0.0237
    180  CD         9.6810  -17.8100    6.0690 C.3   552  PRO552      0.0939
    181  N         11.4730  -13.6930    6.6660 N.am  553  LYS553     -0.1964
    182  CA        11.5090  -12.5770    7.6170 C.3   553  LYS553      0.1728
    183  C         10.1180  -11.9340    7.5480 C.2   553  LYS553      0.2616
    184  O          9.7960  -11.2430    6.5810 O.2   553  LYS553     -0.2715
    185  CB        12.6100  -11.5950    7.1880 C.3   553  LYS553      0.0311
    186  CG        12.7690  -10.3110    8.0000 C.3   553  LYS553      0.0038
    187  CD        13.9260   -9.5100    7.4050 C.3   553  LYS553      0.0206
    188  CE        14.1640   -8.1940    8.1070 C.3   553  LYS553      0.1093
    189  NZ        13.0580   -7.2310    7.8730 N.3   553  LYS553     -0.1314
    190  N          9.2920  -12.1950    8.5620 N.am  554  ILE554     -0.1977
    191  CA         7.9200  -11.6730    8.6010 C.3   554  ILE554      0.1596
    192  C          7.7530  -10.2560    9.1480 C.2   554  ILE554      0.2287
    193  O          6.7360   -9.6020    8.8820 O.2   554  ILE554     -0.2864
    194  CB         6.9400  -12.6320    9.3580 C.3   554  ILE554      0.0276
    195  CG1        7.3590  -12.8180   10.8280 C.3   554  ILE554      0.0022
    196  CG2        6.8460  -13.9630    8.6250 C.3   554  ILE554      0.0022
    197  CD1        6.2470  -13.3410   11.7400 C.3   554  ILE554      0.0001
@<TRIPOS>BOND
     1   146   148   ar
     2   146   145   ar
     3   148   149   ar
     4   142   143    2
     5   142   141    1
     6   157   156    2
     7   145   144    1
     8   145   147   ar
     9   144   141    1
    10   141   140    1
    11   178   179    1
    12   178   175    1
    13   149   147   ar
    14   149   151   ar
    15   154   155    1
    16   156   155    1
    17   147   150   ar
    18   179   180    1
    19   151   153   ar
    20   175   174    1
    21   175   176    1
    22   155   158    1
    23   180   174    1
    24   129   128    2
    25   165   164    2
    26   128   127    1
    27   174   164   am
    28   184   183    2
    29   158   159    1
    30   164   163    1
    31   181   176   am
    32   181   182    1
    33   162   163    1
    34   150   152   ar
    35   153   152   ar
    36   176   177    2
    37   163   166    1
    38   185   182    1
    39   185   186    1
    40   114   115    2
    41   114   113    1
    42   187   186    1
    43   187   188    1
    44   112   113    1
    45   183   182    1
    46   183   190   am
    47   126   127    1
    48   127   130    1
    49   132   134   ar
    50   132   131   ar
    51   189   188    1
    52   159   160    2
    53   159   161   am
    54   134   135   ar
    55   113   116    1
    56   116   117    1
    57   131   130    1
    58   131   133   ar
    59   190   191    1
    60   191   192    1
    61   191   194    1
    62   196   194    1
    63   166   167    1
    64   135   133   ar
    65   135   137   ar
    66   193   192    2
    67   168   167   ar
    68   168   170   ar
    69   133   136   ar
    70   122   124   ar
    71   122   119   ar
    72   137   139   ar
    73   194   195    1
    74   167   169   ar
    75   117   119   ar
    76   117   118   ar
    77   124   125   ar
    78   170   172   ar
    79   119   121   ar
    80   136   138   ar
    81   139   138   ar
    82   110   108   ar
    83   110   111   ar
    84   169   171   ar
    85   118   120   ar
    86   195   197    1
    87   172   171   ar
    88   172   173    1
    89   125   123   ar
    90   108   107   ar
    91   111   109   ar
    92   121   120   ar
    93   121   123   ar
    94    42    40    1
    95    39    38    2
    96    40    37    1
    97    40    41    1
    98   107   109   ar
    99   107   106    1
   100    37    38    1
   101    37    36    1
   102    38    43   am
   103    61    59   ar
   104    61    60   ar
   105    59    57   ar
   106   106   103    1
   107   105   104    2
   108    43    44    1
   109   103   104    1
   110   103   102    1
   111    60    58   ar
   112    57    56   ar
   113    44    45    1
   114    44    47    1
   115    45    46    2
   116    50    48   am
   117    58    56   ar
   118    89    88    2
   119    56    55    1
   120    92    91   ar
   121    48    47    1
   122    48    49    2
   123   100    99   ar
   124    90    91    1
   125    90    87    1
   126    91    93   ar
   127    88    87    1
   128    88    94   am
   129    55    52    1
   130    87    86    1
   131    52    53    1
   132    52    51    1
   133    53    54    2
   134    97    96    2
   135    99   101   ar
   136    99    98    1
   137    95    94    1
   138    95    96    1
   139    95    98    1
   140     9     7   ar
   141     8     7   ar
   142    80    78    1
   143    27    26    1
   144    26    25    1
   145     7     6    1
   146    79    78    1
   147    35    34    1
   148    18    16   ar
   149    78    77    2
   150    25    24    1
   151    17    16   ar
   152    16    15    1
   153     6     5    1
   154    34    33    1
   155     5     2    1
   156    77    76    1
   157    84    83    2
   158    24    23    1
   159    69    67   am
   160    85    82    1
   161    15    14    1
   162    83    82    1
   163    23    20    1
   164    33    32    1
   165    76    75    1
   166     2     1    1
   167     2     3    1
   168    82    81    1
   169    67    68    2
   170    67    66    1
   171    81    72   am
   172     4     3    2
   173    14    11    1
   174    32    29    1
   175    74    75    1
   176    74    71    1
   177    20    19    1
   178    20    21    1
   179    13    12    2
   180    12    19   am
   181    12    11    1
   182    72    71    1
   183    72    73    2
   184    66    63    1
   185    71    70    1
   186    11    10    1
   187    21    22    2
   188    29    28    1
   189    29    30    1
   190    62    63    1
   191    63    64    1
   192    30    31    2
   193    64    65    2
