@<TRIPOS>MOLECULE
tmp/3dklA02.pdb
 95 90 0 0 0
SMALL
GASTEIGER

@<TRIPOS>ATOM
      1  N         16.4410   -2.3340   41.4770 N.3    10  TYR10      -0.1241
      2  CA        15.9670   -3.4770   42.2560 C.3    10  TYR10       0.1605
      3  C         16.7490   -4.7650   42.0110 C.2    10  TYR10       0.2264
      4  O         16.9170   -5.5830   42.9340 O.2    10  TYR10      -0.2867
      5  CB        14.4370   -3.6530   42.1660 C.3    10  TYR10       0.0534
      6  CG        13.8160   -4.2060   40.8520 C.ar   10  TYR10      -0.0201
      7  CD1       12.6250   -4.9090   40.9050 C.ar   10  TYR10      -0.0009
      8  CD2       14.3790   -3.9700   39.5990 C.ar   10  TYR10      -0.0009
      9  CE1       11.9770   -5.3950   39.7420 C.ar   10  TYR10       0.0417
     10  CE2       13.7680   -4.4980   38.4100 C.ar   10  TYR10       0.0417
     11  CZ        12.5760   -5.1950   38.5030 C.ar   10  TYR10       0.1957
     12  OH        11.9610   -5.6730   37.3880 O.3    10  TYR10      -0.2866
     13  N          5.7290  -10.7090   22.7490 N.3    32  ARG32      -0.1245
     14  CA         4.6540  -11.5100   23.2800 C.3    32  ARG32       0.1563
     15  C          3.4020  -11.2250   22.4750 C.2    32  ARG32       0.2260
     16  O          3.2210  -10.1140   21.9750 O.2    32  ARG32      -0.2867
     17  CB         4.4950  -11.1540   24.7490 C.3    32  ARG32       0.0307
     18  CG         3.7410  -12.1150   25.6030 C.3    32  ARG32       0.0489
     19  CD         3.9200  -11.6760   27.1210 C.3    32  ARG32       0.2205
     20  NE         3.6490  -10.2500   27.3920 N.pl3  32  ARG32      -0.0865
     21  CZ         3.8720   -9.6250   28.5690 C.cat  32  ARG32       0.5346
     22  NH1        3.5660   -8.3440   28.7100 N.pl3  32  ARG32       0.1354
     23  NH2        4.3490  -10.2850   29.6150 N.pl3  32  ARG32       0.1354
     24  N         19.0680   -8.4020   32.1640 N.3   129  GLU129     -0.1245
     25  CA        17.7710   -8.1910   31.5290 C.3   129  GLU129      0.1567
     26  C         17.5760   -6.7590   31.0040 C.2   129  GLU129      0.2260
     27  O         17.0450   -6.5510   29.9110 O.2   129  GLU129     -0.2867
     28  CB        16.6080   -8.5130   32.4620 C.3   129  GLU129      0.0388
     29  CG        15.2690   -8.0090   31.8460 C.3   129  GLU129      0.1160
     30  CD        14.0200   -8.3690   32.6580 C.2   129  GLU129      0.3649
     31  OE1       14.1280   -8.8240   33.8330 O.co2 129  GLU129     -0.2457
     32  OE2       12.9150   -8.2560   32.1010 O.co2 129  GLU129     -0.2457
     33  N          8.2320   -0.0080   23.7840 N.3   372  ARG372     -0.1231
     34  CA         8.4620   -1.4020   24.0470 C.3   372  ARG372      0.1694
     35  C          7.1270   -2.1550   24.0480 C.2   372  ARG372      0.2592
     36  O          7.1330   -3.3800   23.9340 O.2   372  ARG372     -0.2718
     37  CB         9.1960   -1.5740   25.3840 C.3   372  ARG372      0.0321
     38  CG         9.5800   -3.0160   25.7670 C.3   372  ARG372      0.0489
     39  CD        10.3520   -2.9960   27.0810 C.3   372  ARG372      0.2205
     40  NE         9.5490   -2.5420   28.2300 N.pl3 372  ARG372     -0.0865
     41  CZ         8.9910   -3.3630   29.1320 C.cat 372  ARG372      0.5346
     42  NH1        9.1180   -4.6890   29.0100 N.pl3 372  ARG372      0.1354
     43  NH2        8.2790   -2.8730   30.1440 N.pl3 372  ARG372      0.1354
     44  N          6.0030   -1.4400   24.1900 N.am  373  ASP373     -0.1974
     45  CA         4.7160   -2.1210   24.2140 C.3   373  ASP373      0.1709
     46  C          4.0710   -2.3880   22.8380 C.2   373  ASP373      0.2293
     47  O          3.2110   -3.2420   22.7290 O.2   373  ASP373     -0.2864
     48  CB         3.8020   -1.4580   25.2280 C.3   373  ASP373      0.1436
     49  CG         4.5030   -1.3470   26.5970 C.2   373  ASP373      0.3671
     50  OD1        4.7990   -2.4100   27.2090 O.co2 373  ASP373     -0.2456
     51  OD2        4.8900   -0.2200   26.9970 O.co2 373  ASP373     -0.2456
     52  N          9.1370   -8.5250   26.0650 N.3   378  SER378     -0.1202
     53  CA         9.2740   -8.9660   27.4600 C.3   378  SER378      0.2020
     54  C         10.3110  -10.0670   27.5920 C.2   378  SER378      0.2619
     55  O         10.5040  -10.8480   26.6930 O.2   378  SER378     -0.2717
     56  CB         7.9450   -9.5220   28.0170 C.3   378  SER378      0.2103
     57  OG         6.8800   -8.7120   27.5660 O.3   378  SER378     -0.2182
     58  N         10.9410  -10.1320   28.7550 N.am  379  PHE379     -0.1961
     59  CA        12.0230  -11.0430   29.0670 C.3   379  PHE379      0.1771
     60  C         11.5990  -11.6770   30.3710 C.2   379  PHE379      0.2619
     61  O         11.3030  -10.9620   31.3340 O.2   379  PHE379     -0.2715
     62  CB        13.2290  -10.1840   29.3160 C.3   379  PHE379      0.0574
     63  CG        14.5120  -10.9150   29.6190 C.ar  379  PHE379     -0.0200
     64  CD1       15.4760  -11.0930   28.5910 C.ar  379  PHE379     -0.0042
     65  CD2       14.8530  -11.2600   30.9320 C.ar  379  PHE379     -0.0042
     66  CE1       16.7150  -11.6360   28.8630 C.ar  379  PHE379     -0.0003
     67  CE2       16.1370  -11.8210   31.2250 C.ar  379  PHE379     -0.0003
     68  CZ        17.0540  -12.0170   30.1800 C.ar  379  PHE379     -0.0000
     69  N         11.5050  -13.0060   30.3930 N.am  380  LYS380     -0.1977
     70  CA        11.0250  -13.7630   31.5700 C.3   380  LYS380      0.1596
     71  C         11.9660  -14.9610   31.8480 C.2   380  LYS380      0.2287
     72  O         12.5260  -15.5810   30.8930 O.2   380  LYS380     -0.2864
     73  CB         9.6080  -14.3230   31.2980 C.3   380  LYS380      0.0298
     74  CG         8.4850  -13.2640   31.2180 C.3   380  LYS380      0.0038
     75  CD         8.5460  -12.2340   32.3220 C.3   380  LYS380      0.0206
     76  CE         7.8800  -10.9660   31.7600 C.3   380  LYS380      0.1093
     77  NZ         8.2480   -9.7390   32.5280 N.3   380  LYS380     -0.1314
     78  N          5.1220  -17.2050   34.8790 N.3   395  LYS395     -0.1245
     79  CA         4.0380  -16.4440   35.5170 C.3   395  LYS395      0.1561
     80  C          2.7460  -16.6820   34.7390 C.2   395  LYS395      0.2260
     81  O          2.7570  -17.0160   33.5310 O.2   395  LYS395     -0.2867
     82  CB         4.3370  -14.9240   35.5740 C.3   395  LYS395      0.0271
     83  CG         4.5490  -14.3380   34.1880 C.3   395  LYS395      0.0035
     84  CD         5.0790  -12.9200   34.1080 C.3   395  LYS395      0.0206
     85  CE         4.1330  -11.8980   34.6290 C.3   395  LYS395      0.1093
     86  NZ         4.6660  -10.5060   34.3830 N.3   395  LYS395     -0.1314
     87  N         -0.2890  -11.9350   29.8280 N.3   403  LYS403     -0.1245
     88  CA         1.0210  -11.9410   30.5300 C.3   403  LYS403      0.1561
     89  C          1.5320  -13.3150   30.9400 C.2   403  LYS403      0.2260
     90  O          2.5930  -13.4050   31.5710 O.2   403  LYS403     -0.2867
     91  CB         1.0150  -11.0310   31.7600 C.3   403  LYS403      0.0271
     92  CG         0.8570   -9.5630   31.4640 C.3   403  LYS403      0.0035
     93  CD         1.5410   -8.7240   32.5950 C.3   403  LYS403      0.0206
     94  CE         1.2730   -7.2310   32.3560 C.3   403  LYS403      0.1093
     95  NZ         2.0200   -6.3480   33.3160 N.3   403  LYS403     -0.1314
@<TRIPOS>BOND
     1    16    15    2
     2    15    14    1
     3    47    46    2
     4    13    14    1
     5    46    45    1
     6    14    17    1
     7    33    34    1
     8    36    35    2
     9    34    35    1
    10    34    37    1
    11    35    44   am
    12    44    45    1
    13    45    48    1
    14    17    18    1
    15    48    49    1
    16    37    38    1
    17    18    19    1
    18    38    39    1
    19    52    53    1
    20    49    51   ar
    21    49    50   ar
    22    55    54    2
    23    39    40    1
    24    19    20    1
    25    20    21    2
    26    53    54    1
    27    53    56    1
    28    57    56    1
    29    54    58   am
    30    40    41    2
    31    21    22    1
    32    21    23    1
    33    64    66   ar
    34    64    63   ar
    35    58    59    1
    36    66    68   ar
    37    42    41    1
    38    59    62    1
    39    59    60    1
    40    41    43    1
    41    62    63    1
    42    63    65   ar
    43    87    88    1
    44    27    26    2
    45    68    67   ar
    46    60    69   am
    47    60    61    2
    48    69    70    1
    49    88    89    1
    50    88    91    1
    51    72    71    2
    52    65    67   ar
    53    89    90    2
    54    26    25    1
    55    74    73    1
    56    74    75    1
    57    73    70    1
    58    92    91    1
    59    92    93    1
    60    25    24    1
    61    25    28    1
    62    70    71    1
    63    76    75    1
    64    76    77    1
    65    29    28    1
    66    29    30    1
    67    32    30   ar
    68    94    93    1
    69    94    95    1
    70    30    31   ar
    71    81    80    2
    72    84    83    1
    73    84    85    1
    74    83    82    1
    75    86    85    1
    76    80    79    1
    77    78    79    1
    78    79    82    1
    79    12    11    1
    80    10    11   ar
    81    10     8   ar
    82    11     9   ar
    83     8     6   ar
    84     9     7   ar
    85     6     7   ar
    86     6     5    1
    87     1     2    1
    88     3     2    1
    89     3     4    2
    90     5     2    1
