@<TRIPOS>MOLECULE
tmp/3dklA01.pdb
 96 91 0 0 0
SMALL
GASTEIGER

@<TRIPOS>ATOM
      1  N         14.0680   11.0490    8.3640 N.3   173  PHE173     -0.1241
      2  CA        14.1830   12.4750    8.7830 C.3   173  PHE173      0.1605
      3  C         14.3330   12.6970   10.3070 C.2   173  PHE173      0.2264
      4  O         14.1880   13.8560   10.8240 O.2   173  PHE173     -0.2867
      5  CB        12.9030   13.2700    8.3550 C.3   173  PHE173      0.0534
      6  CG        12.8660   13.6750    6.8860 C.ar  173  PHE173     -0.0203
      7  CD1       11.8570   14.5640    6.4350 C.ar  173  PHE173     -0.0042
      8  CD2       13.8010   13.1780    5.9740 C.ar  173  PHE173     -0.0042
      9  CE1       11.7920   14.9640    5.1180 C.ar  173  PHE173     -0.0003
     10  CE2       13.7530   13.5640    4.6090 C.ar  173  PHE173     -0.0003
     11  CZ        12.7480   14.4430    4.1830 C.ar  173  PHE173     -0.0000
     12  N         16.7450   14.8120   14.7570 N.3   176  ARG176     -0.1231
     13  CA        16.3670   15.7990   15.7720 C.3   176  ARG176      0.1694
     14  C         15.1830   15.3670   16.6540 C.2   176  ARG176      0.2592
     15  O         15.0250   15.9000   17.7570 O.2   176  ARG176     -0.2718
     16  CB        15.9990   17.1360   15.0710 C.3   176  ARG176      0.0321
     17  CG        14.5280   17.1270   14.4970 C.3   176  ARG176      0.0489
     18  CD        14.2430   18.2890   13.5500 C.3   176  ARG176      0.2205
     19  NE        15.1950   18.3370   12.4440 N.pl3 176  ARG176     -0.0865
     20  CZ        15.1830   19.2680   11.5030 C.cat 176  ARG176      0.5346
     21  NH1       14.2310   20.2110   11.5000 N.pl3 176  ARG176      0.1354
     22  NH2       16.1090   19.2320   10.5590 N.pl3 176  ARG176      0.1354
     23  N         14.3870   14.4060   16.1530 N.am  177  GLY177     -0.1957
     24  CA        13.1030   13.9830   16.7720 C.3   177  GLY177      0.1869
     25  C         13.2710   12.7930   17.7220 C.2   177  GLY177      0.2309
     26  O         12.2900   12.3750   18.3760 O.2   177  GLY177     -0.2863
     27  N         13.6570   25.4570    5.7670 N.3   227  HIS227     -0.1241
     28  CA        13.0410   26.7830    5.7590 C.3   227  HIS227      0.1621
     29  C         14.0220   27.9160    5.9740 C.2   227  HIS227      0.2264
     30  O         13.8170   28.9670    5.4110 O.2   227  HIS227     -0.2867
     31  CB        11.8180   26.8640    6.6820 C.3   227  HIS227      0.0745
     32  CG        10.6960   26.0090    6.2150 C.ar  227  HIS227      0.0817
     33  ND1       10.5300   24.7080    6.6300 N.ar  227  HIS227     -0.2268
     34  CD2        9.7290   26.2420    5.3050 C.ar  227  HIS227      0.1154
     35  CE1        9.4780   24.1920    6.0260 C.ar  227  HIS227      0.1986
     36  NE2        8.9680   25.1100    5.2250 N.ar  227  HIS227     -0.2212
     37  N          9.0490   19.7320   -2.1320 N.3   291  ARG291     -0.1245
     38  CA         8.6330   19.2110   -0.8100 C.3   291  ARG291      0.1563
     39  C          7.5640   20.0740   -0.1500 C.2   291  ARG291      0.2260
     40  O          7.8950   21.1120    0.4120 O.2   291  ARG291     -0.2867
     41  CB         9.8350   19.0540    0.1280 C.3   291  ARG291      0.0307
     42  CG         9.5170   18.5290    1.5870 C.3   291  ARG291      0.0489
     43  CD        10.7700   18.0050    2.3080 C.3   291  ARG291      0.2205
     44  NE        11.7090   19.0450    2.7600 N.pl3 291  ARG291     -0.0865
     45  CZ        11.7370   19.5750    3.9890 C.cat 291  ARG291      0.5346
     46  NH1       12.6590   20.4750    4.2960 N.pl3 291  ARG291      0.1354
     47  NH2       10.8830   19.1860    4.9400 N.pl3 291  ARG291      0.1354
     48  N          5.2400   20.7370    3.1400 N.3   293  ASP293     -0.1239
     49  CA         5.6180   20.4620    4.5350 C.3   293  ASP293      0.1674
     50  C          4.6290   20.9570    5.5680 C.2   293  ASP293      0.2266
     51  O          5.0310   21.3030    6.6720 O.2   293  ASP293     -0.2867
     52  CB         7.0200   21.0460    4.8460 C.3   293  ASP293      0.1410
     53  CG         7.6140   20.4850    6.1380 C.2   293  ASP293      0.3668
     54  OD1        8.1650   21.3010    6.8950 O.co2 293  ASP293     -0.2456
     55  OD2        7.5130   19.2520    6.4160 O.co2 293  ASP293     -0.2456
     56  N          7.0330   15.0840    3.7100 N.3   333  GLY333     -0.1210
     57  CA         7.9470   14.8650    4.8720 C.3   333  GLY333      0.1956
     58  C          7.3590   15.3530    6.1980 C.2   333  GLY333      0.2612
     59  O          8.0810   15.4210    7.2100 O.2   333  GLY333     -0.2717
     60  N          6.0660   15.6900    6.1830 N.am  334  ASP334     -0.1959
     61  CA         5.3430   16.2380    7.3460 C.3   334  ASP334      0.1840
     62  C          4.1810   15.3080    7.7580 C.2   334  ASP334      0.2623
     63  O          3.3870   14.8550    6.8990 O.2   334  ASP334     -0.2715
     64  CB         4.8010   17.6630    7.0280 C.3   334  ASP334      0.1450
     65  CG         3.8690   18.1900    8.1060 C.2   334  ASP334      0.3671
     66  OD1        4.3530   18.4580    9.2060 O.co2 334  ASP334     -0.2456
     67  OD2        2.6480   18.2630    7.8590 O.co2 334  ASP334     -0.2456
     68  N          4.0790   15.0180    9.0580 N.am  335  GLY335     -0.1940
     69  CA         2.9730   14.1900    9.6000 C.3   335  GLY335      0.2014
     70  C          3.0020   12.7370    9.0930 C.2   335  GLY335      0.2638
     71  O          1.9640   12.0770    9.0550 O.2   335  GLY335     -0.2714
     72  N          4.1820   12.2480    8.6860 N.am  336  VAL336     -0.1977
     73  CA         4.3060   10.8970    8.1260 C.3   336  VAL336      0.1596
     74  C          4.5360    9.8280    9.2100 C.2   336  VAL336      0.2287
     75  O          5.5340    9.8610    9.9530 O.2   336  VAL336     -0.2864
     76  CB         5.3600   10.7960    6.9890 C.3   336  VAL336      0.0276
     77  CG1        5.3770    9.3630    6.4040 C.3   336  VAL336      0.0022
     78  CG2        5.0030   11.8130    5.8740 C.3   336  VAL336      0.0022
     79  N         10.1110   10.7030    7.0560 N.3   362  SER362     -0.1202
     80  CA         9.4510   10.5250    8.3660 C.3   362  SER362      0.2020
     81  C         10.5110   10.6280    9.4800 C.2   362  SER362      0.2619
     82  O         11.5970   10.0810    9.3570 O.2   362  SER362     -0.2717
     83  CB         8.7190    9.1750    8.4040 C.3   362  SER362      0.2103
     84  OG         8.0800    8.9680    9.6650 O.3   362  SER362     -0.2182
     85  N         10.2210   11.4070   10.5120 N.am  363  GLY363     -0.1942
     86  CA        11.1310   11.6350   11.6380 C.3   363  GLY363      0.2014
     87  C         10.6830   10.8650   12.8630 C.2   363  GLY363      0.2639
     88  O         11.0100    9.6610   13.0230 O.2   363  GLY363     -0.2714
     89  N          9.8780   11.5410   13.6830 N.am  364  GLY364     -0.1939
     90  CA         9.1960   10.9590   14.8620 C.3   364  GLY364      0.2014
     91  C          8.4130    9.6850   14.6440 C.2   364  GLY364      0.2639
     92  O          8.5370    8.6980   15.4110 O.2   364  GLY364     -0.2714
     93  N          7.6220    9.6660   13.5800 N.am  365  GLY365     -0.1954
     94  CA         6.9170    8.4490   13.2040 C.3   365  GLY365      0.1869
     95  C          7.7810    7.2250   12.9790 C.2   365  GLY365      0.2309
     96  O          7.4020    6.1060   13.3550 O.2   365  GLY365     -0.2863
@<TRIPOS>BOND
     1    37    38    1
     2    38    39    1
     3    38    41    1
     4    39    40    2
     5    41    42    1
     6    42    43    1
     7    43    44    1
     8    44    45    2
     9    48    49    1
    10    56    57    1
    11    45    46    1
    12    45    47    1
    13    11    10   ar
    14    11     9   ar
    15    49    52    1
    16    49    50    1
    17    10     8   ar
    18    52    53    1
    19    57    58    1
    20     9     7   ar
    21    36    34   ar
    22    36    35   ar
    23    34    32   ar
    24    30    29    2
    25    50    51    2
    26    28    27    1
    27    28    29    1
    28    28    31    1
    29    78    76    1
    30     8     6   ar
    31    35    33   ar
    32    53    55   ar
    33    53    54   ar
    34    60    58   am
    35    60    61    1
    36    58    59    2
    37    32    33   ar
    38    32    31    1
    39    77    76    1
    40     7     6   ar
    41     6     5    1
    42    63    62    2
    43    76    73    1
    44    64    61    1
    45    64    65    1
    46    79    80    1
    47    61    62    1
    48    62    68   am
    49    67    65   ar
    50    65    66   ar
    51    73    72    1
    52    73    74    1
    53     5     2    1
    54     1     2    1
    55    80    83    1
    56    80    81    1
    57    83    84    1
    58    72    70   am
    59     2     3    1
    60    71    70    2
    61    68    69    1
    62    70    69    1
    63    74    75    2
    64    82    81    2
    65    81    85   am
    66     3     4    2
    67    85    86    1
    68    22    20    1
    69    21    20    1
    70    20    19    2
    71    86    87    1
    72    19    18    1
    73    87    88    2
    74    87    89   am
    75    95    94    1
    76    95    96    2
    77    94    93    1
    78    18    17    1
    79    93    91   am
    80    89    90    1
    81    17    16    1
    82    91    90    1
    83    91    92    2
    84    12    13    1
    85    16    13    1
    86    13    14    1
    87    23    14   am
    88    23    24    1
    89    14    15    2
    90    24    25    1
    91    25    26    2
