@<TRIPOS>MOLECULE
tmp/3dklA00.pdb
 95 90 0 0 0
SMALL
GASTEIGER

@<TRIPOS>ATOM
      1  N         12.3740    7.9600    3.5320 N.3   171  HIS171     -0.1241
      2  CA        13.6210    8.5710    3.9380 C.3   171  HIS171      0.1621
      3  C         13.5640    8.9040    5.4520 C.2   171  HIS171      0.2264
      4  O         12.5600    9.4770    5.9540 O.2   171  HIS171     -0.2867
      5  CB        13.8490    9.8590    3.1060 C.3   171  HIS171      0.0745
      6  CG        15.2850   10.2930    3.0300 C.ar  171  HIS171      0.0817
      7  ND1       16.1180    9.9580    1.9740 N.ar  171  HIS171     -0.2268
      8  CD2       16.0450   11.0020    3.9010 C.ar  171  HIS171      0.1154
      9  CE1       17.3150   10.4750    2.1880 C.ar  171  HIS171      0.1986
     10  NE2       17.2960   11.1120    3.3520 N.ar  171  HIS171     -0.2212
     11  N         14.0680   11.0490    8.3640 N.3   173  PHE173     -0.1241
     12  CA        14.1830   12.4750    8.7830 C.3   173  PHE173      0.1605
     13  C         14.3330   12.6970   10.3070 C.2   173  PHE173      0.2264
     14  O         14.1880   13.8560   10.8240 O.2   173  PHE173     -0.2867
     15  CB        12.9030   13.2700    8.3550 C.3   173  PHE173      0.0534
     16  CG        12.8660   13.6750    6.8860 C.ar  173  PHE173     -0.0203
     17  CD1       11.8570   14.5640    6.4350 C.ar  173  PHE173     -0.0042
     18  CD2       13.8010   13.1780    5.9740 C.ar  173  PHE173     -0.0042
     19  CE1       11.7920   14.9640    5.1180 C.ar  173  PHE173     -0.0003
     20  CE2       13.7530   13.5640    4.6090 C.ar  173  PHE173     -0.0003
     21  CZ        12.7480   14.4430    4.1830 C.ar  173  PHE173     -0.0000
     22  N         16.5560   12.5120   12.9490 N.3   175  TYR175     -0.1227
     23  CA        17.7250   12.7270   13.8230 C.3   175  TYR175      0.1736
     24  C         17.3630   13.6650   15.0460 C.2   175  TYR175      0.2595
     25  O         17.6470   13.3400   16.2220 O.2   175  TYR175     -0.2718
     26  CB        18.9180   13.2480   12.9710 C.3   175  TYR175      0.0548
     27  CG        20.3690   13.0380   13.5040 C.ar  175  TYR175     -0.0200
     28  CD1       20.6090   12.6930   14.8490 C.ar  175  TYR175     -0.0009
     29  CD2       21.4700   13.2160   12.6600 C.ar  175  TYR175     -0.0009
     30  CE1       21.9140   12.5290   15.3500 C.ar  175  TYR175      0.0417
     31  CE2       22.8060   13.0540   13.1230 C.ar  175  TYR175      0.0417
     32  CZ        23.0110   12.7160   14.4820 C.ar  175  TYR175      0.1957
     33  OH        24.2650   12.5120   14.9880 O.3   175  TYR175     -0.2866
     34  N         16.7450   14.8120   14.7570 N.am  176  ARG176     -0.1980
     35  CA        16.3670   15.7990   15.7720 C.3   176  ARG176      0.1597
     36  C         15.1830   15.3670   16.6540 C.2   176  ARG176      0.2287
     37  O         15.0250   15.9000   17.7570 O.2   176  ARG176     -0.2864
     38  CB        15.9990   17.1360   15.0710 C.3   176  ARG176      0.0334
     39  CG        14.5280   17.1270   14.4970 C.3   176  ARG176      0.0492
     40  CD        14.2430   18.2890   13.5500 C.3   176  ARG176      0.2205
     41  NE        15.1950   18.3370   12.4440 N.pl3 176  ARG176     -0.0865
     42  CZ        15.1830   19.2680   11.5030 C.cat 176  ARG176      0.5346
     43  NH1       14.2310   20.2110   11.5000 N.pl3 176  ARG176      0.1354
     44  NH2       16.1090   19.2320   10.5590 N.pl3 176  ARG176      0.1354
     45  N         18.8250   10.8130    6.2930 N.3   199  ASP199     -0.1239
     46  CA        19.5610   12.0030    6.7130 C.3   199  ASP199      0.1674
     47  C         20.1030   11.8460    8.1480 C.2   199  ASP199      0.2266
     48  O         20.7400   12.7610    8.7010 O.2   199  ASP199     -0.2867
     49  CB        18.7080   13.2720    6.5840 C.3   199  ASP199      0.1410
     50  CG        18.7510   13.8800    5.2040 C.2   199  ASP199      0.3668
     51  OD1       18.8480   13.1500    4.1710 O.co2 199  ASP199     -0.2456
     52  OD2       18.6880   15.1290    5.1570 O.co2 199  ASP199     -0.2456
     53  N         20.5810   13.1870   -0.6710 N.3   222  VAL222     -0.1245
     54  CA        20.7000   14.2310   -1.6820 C.3   222  VAL222      0.1561
     55  C         20.6180   15.6500   -1.0690 C.2   222  VAL222      0.2260
     56  O         20.0310   15.8530    0.0160 O.2   222  VAL222     -0.2867
     57  CB        19.6080   14.0930   -2.7870 C.3   222  VAL222      0.0252
     58  CG1       19.7390   12.7230   -3.5090 C.3   222  VAL222      0.0019
     59  CG2       18.2410   14.2920   -2.1860 C.3   222  VAL222      0.0019
     60  N         19.1230   19.1500   -0.1730 N.3   224  ALA224     -0.1231
     61  CA        17.7350   19.4460    0.1470 C.3   224  ALA224      0.1694
     62  C         17.7080   20.7750    0.9240 C.2   224  ALA224      0.2592
     63  O         18.6470   21.0690    1.6810 O.2   224  ALA224     -0.2718
     64  CB        17.1450   18.2900    0.9620 C.3   224  ALA224      0.0304
     65  N         16.7060   21.6140    0.6850 N.am  225  ALA225     -0.1966
     66  CA        16.5690   22.8880    1.4260 C.3   225  ALA225      0.1728
     67  C         15.8260   22.6560    2.7470 C.2   225  ALA225      0.2616
     68  O         15.1690   21.6440    2.9210 O.2   225  ALA225     -0.2715
     69  CB        15.8080   23.9460    0.5980 C.3   225  ALA225      0.0334
     70  N         15.9730   23.6100    3.6610 N.am  226  GLU226     -0.1977
     71  CA        15.1060   23.7450    4.8030 C.3   226  GLU226      0.1602
     72  C         14.5370   25.1770    4.8070 C.2   226  GLU226      0.2287
     73  O         14.9100   26.0350    3.9660 O.2   226  GLU226     -0.2864
     74  CB        15.8540   23.4890    6.1130 C.3   226  GLU226      0.0415
     75  CG        16.8570   24.6050    6.5200 C.3   226  GLU226      0.1163
     76  CD        17.6770   24.2510    7.7730 C.2   226  GLU226      0.3649
     77  OE1       18.2270   25.1680    8.4370 O.co2 226  GLU226     -0.2457
     78  OE2       17.7970   23.0480    8.0790 O.co2 226  GLU226     -0.2457
     79  N         15.9810   18.4200   -3.4360 N.3   255  SER255     -0.1217
     80  CA        14.6750   18.5810   -2.7750 C.3   255  SER255      0.1889
     81  C         14.5370   20.0170   -2.3400 C.2   255  SER255      0.2288
     82  O         15.4550   20.5660   -1.6570 O.2   255  SER255     -0.2866
     83  CB        14.6020   17.6430   -1.5400 C.3   255  SER255      0.2089
     84  OG        13.6060   18.1050   -0.6370 O.3   255  SER255     -0.2183
     85  N          9.0490   19.7320   -2.1320 N.3   291  ARG291     -0.1245
     86  CA         8.6330   19.2110   -0.8100 C.3   291  ARG291      0.1563
     87  C          7.5640   20.0740   -0.1500 C.2   291  ARG291      0.2260
     88  O          7.8950   21.1120    0.4120 O.2   291  ARG291     -0.2867
     89  CB         9.8350   19.0540    0.1280 C.3   291  ARG291      0.0307
     90  CG         9.5170   18.5290    1.5870 C.3   291  ARG291      0.0489
     91  CD        10.7700   18.0050    2.3080 C.3   291  ARG291      0.2205
     92  NE        11.7090   19.0450    2.7600 N.pl3 291  ARG291     -0.0865
     93  CZ        11.7370   19.5750    3.9890 C.cat 291  ARG291      0.5346
     94  NH1       12.6590   20.4750    4.2960 N.pl3 291  ARG291      0.1354
     95  NH2       10.8830   19.1860    4.9400 N.pl3 291  ARG291      0.1354
@<TRIPOS>BOND
     1    58    57    1
     2    79    80    1
     3    57    59    1
     4    57    54    1
     5    80    81    1
     6    80    83    1
     7    81    82    2
     8    85    86    1
     9    54    55    1
    10    54    53    1
    11    83    84    1
    12    55    56    2
    13    86    87    1
    14    86    89    1
    15    60    61    1
    16    87    88    2
    17    89    90    1
    18    61    62    1
    19    61    64    1
    20    69    66    1
    21    65    62   am
    22    65    66    1
    23    62    63    2
    24    66    67    1
    25    90    91    1
    26     7     9   ar
    27     7     6   ar
    28     9    10   ar
    29    91    92    1
    30    67    68    2
    31    67    70   am
    32    92    93    2
    33     6     5    1
    34     6     8   ar
    35     5     2    1
    36    10     8   ar
    37     1     2    1
    38    70    71    1
    39     2     3    1
    40    73    72    2
    41    93    94    1
    42    93    95    1
    43    51    50   ar
    44    21    20   ar
    45    21    19   ar
    46    20    18   ar
    47    71    72    1
    48    71    74    1
    49    19    17   ar
    50    52    50   ar
    51    50    49    1
    52     3     4    2
    53    18    16   ar
    54    74    75    1
    55    45    46    1
    56    17    16   ar
    57    75    76    1
    58    49    46    1
    59    46    47    1
    60    16    15    1
    61    76    78   ar
    62    76    77   ar
    63    47    48    2
    64    15    12    1
    65    11    12    1
    66    12    13    1
    67    13    14    2
    68    44    42    1
    69    43    42    1
    70    42    41    2
    71    41    40    1
    72    29    31   ar
    73    29    27   ar
    74    22    23    1
    75    26    27    1
    76    26    23    1
    77    31    32   ar
    78    27    28   ar
    79    40    39    1
    80    23    24    1
    81    32    33    1
    82    32    30   ar
    83    39    38    1
    84    34    24   am
    85    34    35    1
    86    28    30   ar
    87    24    25    2
    88    38    35    1
    89    35    36    1
    90    36    37    2
