@<TRIPOS>MOLECULE
tmp/3dkoA00.pdb
 198 188 0 0 0
SMALL
GASTEIGER

@<TRIPOS>ATOM
      1  N        -25.9780    8.5430  -21.6940 N.3    33  ILE33      -0.1231
      2  CA       -24.8440    7.6230  -21.5770 C.3    33  ILE33       0.1692
      3  C        -25.0560    6.4980  -20.5520 C.2    33  ILE33       0.2592
      4  O        -24.3200    5.5110  -20.5450 O.2    33  ILE33      -0.2718
      5  CB       -23.4970    8.3770  -21.3500 C.3    33  ILE33       0.0266
      6  CG1      -23.5720    9.3090  -20.1360 C.3    33  ILE33       0.0019
      7  CG2      -23.1030    9.1480  -22.6270 C.3    33  ILE33       0.0020
      8  CD1      -22.2440    9.9160  -19.7330 C.3    33  ILE33       0.0001
      9  N        -26.0760    6.6450  -19.7130 N.am   34  GLY34      -0.1957
     10  CA       -26.3710    5.6790  -18.6630 C.3    34  GLY34       0.1869
     11  C        -27.8030    5.7700  -18.1660 C.2    34  GLY34       0.2309
     12  O        -28.4560    6.7990  -18.3200 O.2    34  GLY34      -0.2863
     13  N        -28.2530    9.2070  -16.9660 N.3    40  VAL40      -0.1245
     14  CA       -26.9790    9.9070  -16.9770 C.3    40  VAL40       0.1561
     15  C        -26.6780   10.3000  -18.4170 C.2    40  VAL40       0.2260
     16  O        -26.7440    9.4700  -19.3290 O.2    40  VAL40      -0.2867
     17  CB       -25.8200    9.0690  -16.3950 C.3    40  VAL40       0.0252
     18  CG1      -24.5140    9.8540  -16.4820 C.3    40  VAL40       0.0019
     19  CG2      -26.1090    8.6830  -14.9470 C.3    40  VAL40       0.0019
     20  N        -20.7090   15.5740  -17.3230 N.3    56  ALA56      -0.1245
     21  CA       -21.6560   14.4770  -17.1860 C.3    56  ALA56       0.1562
     22  C        -22.7840   15.0080  -16.3230 C.2    56  ALA56       0.2260
     23  O        -22.5460   15.7780  -15.3810 O.2    56  ALA56      -0.2867
     24  CB       -21.0100   13.2840  -16.5320 C.3    56  ALA56       0.0290
     25  N        -26.1680   13.8950  -14.1810 N.3    58  LYS58      -0.1245
     26  CA       -26.9660   12.8440  -13.5650 C.3    58  LYS58       0.1561
     27  C        -28.3260   13.4640  -13.2580 C.2    58  LYS58       0.2260
     28  O        -28.4010   14.4670  -12.5590 O.2    58  LYS58      -0.2867
     29  CB       -26.2660   12.3250  -12.3030 C.3    58  LYS58       0.0271
     30  CG       -26.8490   11.0380  -11.7590 C.3    58  LYS58       0.0035
     31  CD       -25.9450   10.3690  -10.7250 C.3    58  LYS58       0.0206
     32  CE       -26.6740    9.2060  -10.0510 C.3    58  LYS58       0.1093
     33  NZ       -25.8910    8.5540   -8.9610 N.3    58  LYS58      -0.1314
     34  N        -25.1520   12.6570   -2.5820 N.3    75  GLU75      -0.1245
     35  CA       -23.9620   12.4050   -3.3850 C.3    75  GLU75       0.1567
     36  C        -23.1760   13.6870   -3.6780 C.2    75  GLU75       0.2260
     37  O        -21.9400   13.6940   -3.6350 O.2    75  GLU75      -0.2867
     38  CB       -24.3980   11.7230   -4.6870 C.3    75  GLU75       0.0388
     39  CG       -23.3200   11.5360   -5.7250 C.3    75  GLU75       0.1160
     40  CD       -23.7530   10.5990   -6.8520 C.2    75  GLU75       0.3649
     41  OE1      -24.9820   10.4630   -7.1100 O.co2  75  GLU75      -0.2457
     42  OE2      -22.8560    9.9990   -7.4710 O.co2  75  GLU75      -0.2457
     43  N        -21.3600   14.9130   -0.5810 N.3    78  ILE78      -0.1231
     44  CA       -20.1200   14.1590   -0.4210 C.3    78  ILE78       0.1692
     45  C        -19.0750   14.6720   -1.4250 C.2    78  ILE78       0.2591
     46  O        -18.0760   15.2870   -1.0350 O.2    78  ILE78      -0.2718
     47  CB       -20.3720   12.6320   -0.5630 C.3    78  ILE78       0.0266
     48  CG1      -21.3220   12.1450    0.5440 C.3    78  ILE78       0.0019
     49  CG2      -19.0500   11.8490   -0.5350 C.3    78  ILE78       0.0020
     50  CD1      -22.0070   10.8110    0.2630 C.3    78  ILE78       0.0001
     51  N        -19.3360   14.4620   -2.7150 N.am   79  MET79      -0.1979
     52  CA       -18.4130   14.8590   -3.7920 C.3    79  MET79       0.1605
     53  C        -17.8280   16.2630   -3.6800 C.2    79  MET79       0.2287
     54  O        -16.6320   16.4480   -3.8710 O.2    79  MET79      -0.2864
     55  CB       -19.0930   14.7360   -5.1560 C.3    79  MET79       0.0413
     56  CG       -19.4140   13.3160   -5.5810 C.3    79  MET79       0.0598
     57  SD       -20.0400   13.3100   -7.2820 S.3    79  MET79      -0.1393
     58  CE       -18.7130   14.2310   -8.0980 C.3    79  MET79       0.0692
     59  N        -14.5200   17.5170   -1.9520 N.3    82  PHE82      -0.1241
     60  CA       -13.1950   17.1220   -2.4550 C.3    82  PHE82       0.1605
     61  C        -12.6330   18.0000   -3.5820 C.2    82  PHE82       0.2264
     62  O        -13.3670   18.5300   -4.4050 O.2    82  PHE82      -0.2867
     63  CB       -13.1870   15.6410   -2.8660 C.3    82  PHE82       0.0534
     64  CG       -13.7400   14.7170   -1.8140 C.ar   82  PHE82      -0.0203
     65  CD1      -13.3330   14.8250   -0.4830 C.ar   82  PHE82      -0.0042
     66  CD2      -14.6830   13.7490   -2.1490 C.ar   82  PHE82      -0.0042
     67  CE1      -13.8460   13.9710    0.4940 C.ar   82  PHE82      -0.0003
     68  CE2      -15.1970   12.8780   -1.1770 C.ar   82  PHE82      -0.0003
     69  CZ       -14.7840   12.9960    0.1400 C.ar   82  PHE82      -0.0000
     70  N         -9.6760   12.6830   -8.1440 N.3    87  VAL87      -0.1231
     71  CA       -10.9910   12.4550   -7.5630 C.3    87  VAL87       0.1692
     72  C        -11.9420   13.2360   -8.4510 C.2    87  VAL87       0.2591
     73  O        -11.7020   14.4060   -8.7350 O.2    87  VAL87      -0.2718
     74  CB       -11.0880   12.9230   -6.0780 C.3    87  VAL87       0.0266
     75  CG1      -12.5040   12.6950   -5.5270 C.3    87  VAL87       0.0020
     76  CG2      -10.0690   12.1750   -5.1950 C.3    87  VAL87       0.0020
     77  N        -13.0030   12.5850   -8.9110 N.am   88  VAL88      -0.1980
     78  CA       -13.9230   13.2170   -9.8660 C.3    88  VAL88       0.1595
     79  C        -14.5560   14.4970   -9.2740 C.2    88  VAL88       0.2287
     80  O        -14.9660   14.5170   -8.1060 O.2    88  VAL88      -0.2864
     81  CB       -14.9610   12.1870  -10.4160 C.3    88  VAL88       0.0276
     82  CG1      -15.9590   11.7580   -9.3240 C.3    88  VAL88       0.0022
     83  CG2      -15.6830   12.7380  -11.6620 C.3    88  VAL88       0.0022
     84  N        -21.2200   16.9570  -13.2100 N.3   104  ILE104     -0.1231
     85  CA       -19.8950   16.4350  -12.8660 C.3   104  ILE104      0.1692
     86  C        -18.9590   16.5650  -14.0600 C.2   104  ILE104      0.2592
     87  O        -19.4170   16.5250  -15.2030 O.2   104  ILE104     -0.2718
     88  CB       -20.0380   14.9450  -12.4370 C.3   104  ILE104      0.0266
     89  CG1      -20.8700   14.8440  -11.1450 C.3   104  ILE104      0.0019
     90  CG2      -18.6870   14.2970  -12.2260 C.3   104  ILE104      0.0020
     91  CD1      -21.6410   13.5290  -10.9710 C.3   104  ILE104      0.0001
     92  N        -17.6560   16.7200  -13.8180 N.am  105  GLU105     -0.1966
     93  CA       -16.6870   16.7160  -14.9210 C.3   105  GLU105      0.1733
     94  C        -16.8650   15.4650  -15.7770 C.2   105  GLU105      0.2616
     95  O        -17.1480   14.3790  -15.2650 O.2   105  GLU105     -0.2715
     96  CB       -15.2330   16.8610  -14.4530 C.3   105  GLU105      0.0429
     97  CG       -14.6680   15.6760  -13.6890 C.3   105  GLU105      0.1163
     98  CD       -13.1670   15.7760  -13.4730 C.2   105  GLU105      0.3649
     99  OE1      -12.4330   15.9800  -14.4480 O.co2 105  GLU105     -0.2457
    100  OE2      -12.7100   15.6280  -12.3250 O.co2 105  GLU105     -0.2457
    101  N        -16.7440   15.6470  -17.0830 N.am  106  PHE106     -0.1960
    102  CA       -16.9690   14.5860  -18.0270 C.3   106  PHE106      0.1771
    103  C        -15.7090   13.7540  -18.1460 C.2   106  PHE106      0.2619
    104  O        -14.5970   14.2820  -18.2360 O.2   106  PHE106     -0.2715
    105  CB       -17.3530   15.1670  -19.3840 C.3   106  PHE106      0.0574
    106  CG       -17.6480   14.1300  -20.4280 C.ar  106  PHE106     -0.0200
    107  CD1      -18.6020   13.1330  -20.1970 C.ar  106  PHE106     -0.0042
    108  CD2      -16.9920   14.1630  -21.6520 C.ar  106  PHE106     -0.0042
    109  CE1      -18.8810   12.1710  -21.1770 C.ar  106  PHE106     -0.0003
    110  CE2      -17.2640   13.2110  -22.6400 C.ar  106  PHE106     -0.0003
    111  CZ       -18.2100   12.2120  -22.4000 C.ar  106  PHE106     -0.0000
    112  N        -15.8890   12.4440  -18.1280 N.am  107  MET107     -0.1977
    113  CA       -14.7560   11.5360  -18.2350 C.3   107  MET107      0.1605
    114  C        -15.0110   10.6730  -19.4510 C.2   107  MET107      0.2287
    115  O        -15.7830    9.7280  -19.4010 O.2   107  MET107     -0.2864
    116  CB       -14.5880   10.7280  -16.9410 C.3   107  MET107      0.0413
    117  CG       -14.3510   11.6180  -15.6970 C.3   107  MET107      0.0598
    118  SD       -12.7170   12.3840  -15.6380 S.3   107  MET107     -0.1393
    119  CE       -11.7170   10.9220  -15.2610 C.3   107  MET107      0.0692
    120  N        -14.9870    6.7220  -19.6770 N.3   110  GLY110     -0.1210
    121  CA       -15.9350    6.0430  -18.7940 C.3   110  GLY110      0.1956
    122  C        -15.2490    5.2210  -17.7180 C.2   110  GLY110      0.2611
    123  O        -14.1730    5.5860  -17.2590 O.2   110  GLY110     -0.2717
    124  N        -15.8640    4.1010  -17.3400 N.am  111  ALA111     -0.1979
    125  CA       -15.3730    3.2670  -16.2490 C.3   111  ALA111      0.1597
    126  C        -14.1510    2.4690  -16.6760 C.2   111  ALA111      0.2287
    127  O        -14.1090    1.8960  -17.7660 O.2   111  ALA111     -0.2864
    128  CB       -16.4510    2.3370  -15.7600 C.3   111  ALA111      0.0319
    129  N         -8.1500   11.1100   -0.2160 N.3   142  LEU142     -0.1245
    130  CA        -9.4050   10.7830    0.4730 C.3   142  LEU142      0.1561
    131  C         -9.1740   10.2510    1.8830 C.2   142  LEU142      0.2260
    132  O         -9.8700   10.6420    2.8230 O.2   142  LEU142     -0.2867
    133  CB       -10.2430    9.7820   -0.3390 C.3   142  LEU142      0.0270
    134  CG       -10.8520   10.2650   -1.6650 C.3   142  LEU142      0.0019
    135  CD1      -11.5070    9.0910   -2.3970 C.3   142  LEU142      0.0001
    136  CD2      -11.8680   11.3860   -1.4860 C.3   142  LEU142      0.0001
    137  N        -12.0560   10.2750    4.6480 N.3   147  TYR147     -0.1241
    138  CA       -13.1140    9.6140    3.8770 C.3   147  TYR147      0.1605
    139  C        -12.7890    8.1530    3.5440 C.2   147  TYR147      0.2264
    140  O        -11.7600    7.8680    2.9240 O.2   147  TYR147     -0.2867
    141  CB       -13.4230   10.3910    2.5940 C.3   147  TYR147      0.0534
    142  CG       -14.5870    9.8290    1.8010 C.ar  147  TYR147     -0.0201
    143  CD1      -15.9010   10.0540    2.2010 C.ar  147  TYR147     -0.0009
    144  CD2      -14.3730    9.0500    0.6640 C.ar  147  TYR147     -0.0009
    145  CE1      -16.9740    9.5340    1.4770 C.ar  147  TYR147      0.0417
    146  CE2      -15.4360    8.5260   -0.0670 C.ar  147  TYR147      0.0417
    147  CZ       -16.7320    8.7780    0.3530 C.ar  147  TYR147      0.1957
    148  OH       -17.7890    8.2800   -0.3550 O.3   147  TYR147     -0.2866
    149  N        -13.9430    5.0670    1.3380 N.3   149  HIS149     -0.1241
    150  CA       -14.7270    4.8460    0.1280 C.3   149  HIS149      0.1621
    151  C        -15.7550    3.7050    0.2500 C.2   149  HIS149      0.2264
    152  O        -16.9420    3.9000   -0.0360 O.2   149  HIS149     -0.2867
    153  CB       -13.7960    4.5840   -1.0520 C.3   149  HIS149      0.0745
    154  CG       -14.4720    4.6680   -2.3800 C.ar  149  HIS149      0.0817
    155  ND1      -15.2840    3.6690   -2.8650 N.ar  149  HIS149     -0.2268
    156  CD2      -14.4710    5.6440   -3.3210 C.ar  149  HIS149      0.1154
    157  CE1      -15.7450    4.0180   -4.0570 C.ar  149  HIS149      0.1986
    158  NE2      -15.2690    5.2130   -4.3530 N.ar  149  HIS149     -0.2212
    159  N        -13.0750    6.3190  -13.0720 N.3   158  LEU158     -0.1245
    160  CA       -13.3920    6.9500  -14.3510 C.3   158  LEU158      0.1561
    161  C        -12.1120    7.3990  -15.0350 C.2   158  LEU158      0.2260
    162  O        -11.1620    7.7950  -14.3580 O.2   158  LEU158     -0.2867
    163  CB       -14.3180    8.1610  -14.1520 C.3   158  LEU158      0.0270
    164  CG       -15.7820    7.8120  -13.8160 C.3   158  LEU158      0.0019
    165  CD1      -16.5690    9.0860  -13.5360 C.3   158  LEU158      0.0001
    166  CD2      -16.4170    7.0220  -14.9300 C.3   158  LEU158      0.0001
    167  N        -10.9610    8.6080   -8.8600 N.3   167  VAL167     -0.1231
    168  CA       -11.8580    7.9230   -7.9350 C.3   167  VAL167      0.1692
    169  C        -13.2670    8.5050   -8.0260 C.2   167  VAL167      0.2593
    170  O        -13.4530    9.7360   -8.0300 O.2   167  VAL167     -0.2718
    171  CB       -11.3150    7.9780   -6.4790 C.3   167  VAL167      0.0266
    172  CG1      -12.2860    7.3240   -5.5010 C.3   167  VAL167      0.0020
    173  CG2       -9.9050    7.3100   -6.4030 C.3   167  VAL167      0.0020
    174  N        -14.2300    7.5870   -8.1320 N.am  168  SER168     -0.1938
    175  CA       -15.6520    7.8680   -8.2960 C.3   168  SER168      0.2055
    176  C        -16.4700    6.8290   -7.5060 C.2   168  SER168      0.2643
    177  O        -15.9100    6.0000   -6.7940 O.2   168  SER168     -0.2714
    178  CB       -16.0210    7.7740   -9.7780 C.3   168  SER168      0.2130
    179  OG       -15.0120    8.3600  -10.5840 O.3   168  SER168     -0.2179
    180  N        -17.7910    6.8490   -7.6510 N.am  169  ASP169     -0.1957
    181  CA       -18.6320    5.8260   -7.0170 C.3   169  ASP169      0.1840
    182  C        -19.9980    5.7910   -7.6990 C.2   169  ASP169      0.2622
    183  O        -20.7090    6.7990   -7.7280 O.2   169  ASP169     -0.2715
    184  CB       -18.7850    6.1050   -5.5170 C.3   169  ASP169      0.1450
    185  CG       -19.3530    4.9070   -4.7420 C.2   169  ASP169      0.3671
    186  OD1      -19.7970    3.9080   -5.3690 O.co2 169  ASP169     -0.2456
    187  OD2      -19.3500    4.9760   -3.4880 O.co2 169  ASP169     -0.2456
    188  N        -20.3530    4.6340   -8.2550 N.am  170  PHE170     -0.1974
    189  CA       -21.6310    4.4880   -8.9590 C.3   170  PHE170      0.1639
    190  C        -22.7670    3.9090   -8.0910 C.2   170  PHE170      0.2290
    191  O        -23.8920    3.7210   -8.5670 O.2   170  PHE170     -0.2864
    192  CB       -21.4360    3.6880  -10.2590 C.3   170  PHE170      0.0560
    193  CG       -20.7070    4.4500  -11.3420 C.ar  170  PHE170     -0.0200
    194  CD1      -21.3170    5.5270  -11.9910 C.ar  170  PHE170     -0.0042
    195  CD2      -19.4210    4.0870  -11.7210 C.ar  170  PHE170     -0.0042
    196  CE1      -20.6490    6.2340  -12.9950 C.ar  170  PHE170     -0.0003
    197  CE2      -18.7430    4.7830  -12.7220 C.ar  170  PHE170     -0.0003
    198  CZ       -19.3590    5.8570  -13.3660 C.ar  170  PHE170     -0.0000
@<TRIPOS>BOND
     1   110   111   ar
     2   110   108   ar
     3     7     5    1
     4   111   109   ar
     5     1     2    1
     6   108   106   ar
     7     2     5    1
     8     2     3    1
     9     5     6    1
    10   109   107   ar
    11     3     4    2
    12     3     9   am
    13   106   107   ar
    14   106   105    1
    15     6     8    1
    16     9    10    1
    17   120   121    1
    18   114   115    2
    19   114   113    1
    20   105   102    1
    21    16    15    2
    22   121   122    1
    23    10    11    1
    24    15    14    1
    25    12    11    2
    26   104   103    2
    27   113   112    1
    28   113   116    1
    29   103   112   am
    30   103   102    1
    31   102   101    1
    32   127   126    2
    33   122   124   am
    34   122   123    2
    35   124   125    1
    36    20    21    1
    37    21    24    1
    38    21    22    1
    39   101    94   am
    40    14    13    1
    41    14    17    1
    42   116   117    1
    43   126   125    1
    44    18    17    1
    45    17    19    1
    46    22    23    2
    47   125   128    1
    48    94    95    2
    49    94    93    1
    50   117   118    1
    51   118   119    1
    52    87    86    2
    53   161   162    2
    54   161   160    1
    55   166   164    1
    56    93    96    1
    57    93    92    1
    58    96    97    1
    59    99    98   ar
    60   160   163    1
    61   160   159    1
    62    25    26    1
    63   163   164    1
    64    86    92   am
    65    86    85    1
    66   164   165    1
    67    97    98    1
    68    26    27    1
    69    26    29    1
    70    98   100   ar
    71   198   196   ar
    72   198   197   ar
    73    27    28    2
    74    84    85    1
    75   196   194   ar
    76    85    88    1
    77   197   195   ar
    78    88    90    1
    79    88    89    1
    80    29    30    1
    81   194   193   ar
    82    30    31    1
    83   195   193   ar
    84    83    81    1
    85   193   192    1
    86    89    91    1
    87    31    32    1
    88   179   178    1
    89    81    78    1
    90    81    82    1
    91   192   189    1
    92    32    33    1
    93    78    79    1
    94    78    77    1
    95   178   175    1
    96    79    80    2
    97   189   188    1
    98   189   190    1
    99    77    72   am
   100   167   168    1
   101    73    72    2
   102   191   190    2
   103    72    71    1
   104   175   174    1
   105   175   176    1
   106   188   182   am
   107    70    71    1
   108   174   169   am
   109    58    57    1
   110   170   169    2
   111   169   168    1
   112   168   171    1
   113   183   182    2
   114   182   181    1
   115   180   176   am
   116   180   181    1
   117    71    74    1
   118   176   177    2
   119    42    40   ar
   120    57    56    1
   121    41    40   ar
   122   181   184    1
   123    40    39    1
   124   171   173    1
   125   171   172    1
   126    74    75    1
   127    74    76    1
   128    39    38    1
   129    56    55    1
   130   184   185    1
   131   186   185   ar
   132    55    52    1
   133   185   187   ar
   134    38    35    1
   135    62    61    2
   136   158   157   ar
   137   158   156   ar
   138   157   155   ar
   139    54    53    2
   140    52    53    1
   141    52    51    1
   142    36    37    2
   143    36    35    1
   144    61    60    1
   145    35    34    1
   146   156   154   ar
   147    63    60    1
   148    63    64    1
   149   155   154   ar
   150    51    45   am
   151    60    59    1
   152   135   134    1
   153   154   153    1
   154    66    64   ar
   155    66    68   ar
   156    64    65   ar
   157   134   136    1
   158   134   133    1
   159    45    46    2
   160    45    44    1
   161    68    69   ar
   162   153   150    1
   163    43    44    1
   164    47    49    1
   165    47    44    1
   166    47    48    1
   167    65    67   ar
   168   148   147    1
   169   133   130    1
   170   129   130    1
   171   146   147   ar
   172   146   144   ar
   173   152   151    2
   174   150   151    1
   175   150   149    1
   176    69    67   ar
   177    50    48    1
   178   147   145   ar
   179   130   131    1
   180   144   142   ar
   181   145   143   ar
   182   142   143   ar
   183   142   141    1
   184   131   132    2
   185   141   138    1
   186   140   139    2
   187   139   138    1
   188   138   137    1
