@<TRIPOS>MOLECULE
tmp/3dkpA00.pdb
 146 142 0 0 0
SMALL
GASTEIGER

@<TRIPOS>ATOM
      1  N         10.2210   -5.1490    1.1860 N.3    27  PHE27      -0.1241
      2  CA        11.1240   -3.9890    1.3710 C.3    27  PHE27       0.1605
      3  C         11.4120   -3.2390    0.0730 C.2    27  PHE27       0.2264
      4  O         11.7300   -2.0440    0.0870 O.2    27  PHE27      -0.2867
      5  CB        12.4360   -4.3520    2.0660 C.3    27  PHE27       0.0534
      6  CG        12.2640   -4.7580    3.5030 C.ar   27  PHE27      -0.0203
      7  CD1       11.7130   -3.8830    4.4270 C.ar   27  PHE27      -0.0042
      8  CD2       12.6610   -6.0140    3.9270 C.ar   27  PHE27      -0.0042
      9  CE1       11.5600   -4.2670    5.7450 C.ar   27  PHE27      -0.0003
     10  CE2       12.5000   -6.4000    5.2480 C.ar   27  PHE27      -0.0003
     11  CZ        11.9600   -5.5350    6.1510 C.ar   27  PHE27      -0.0000
     12  N         19.6690  -10.6650    6.0000 N.3    48  GLY48      -0.1210
     13  CA        18.8370  -11.8320    5.7580 C.3    48  GLY48       0.1956
     14  C         17.3700  -11.5000    5.9810 C.2    48  GLY48       0.2612
     15  O         16.5270  -12.3820    6.0400 O.2    48  GLY48      -0.2717
     16  N         17.0580  -10.2210    6.1230 N.am   49  PHE49      -0.1962
     17  CA        15.6780   -9.8430    6.3000 C.3    49  PHE49       0.1771
     18  C         15.1000   -9.7430    4.9210 C.2    49  PHE49       0.2619
     19  O         15.0130   -8.6530    4.3570 O.2    49  PHE49      -0.2715
     20  CB        15.5530   -8.5240    7.0410 C.3    49  PHE49       0.0574
     21  CG        16.2890   -8.4820    8.3670 C.ar   49  PHE49      -0.0200
     22  CD1       16.4380   -9.6290    9.1510 C.ar   49  PHE49      -0.0042
     23  CD2       16.8360   -7.2960    8.8220 C.ar   49  PHE49      -0.0042
     24  CE1       17.1030   -9.5720   10.3800 C.ar   49  PHE49      -0.0003
     25  CE2       17.5080   -7.2370   10.0480 C.ar   49  PHE49      -0.0003
     26  CZ        17.6290   -8.3710   10.8270 C.ar   49  PHE49      -0.0000
     27  N         14.7280  -10.8980    4.3750 N.am   50  GLN50      -0.1963
     28  CA        14.2020  -10.9940    3.0340 C.3    50  GLN50       0.1733
     29  C         12.8070  -10.3360    2.8520 C.2    50  GLN50       0.2616
     30  O         12.4950   -9.7810    1.7920 O.2    50  GLN50      -0.2715
     31  CB        14.1720  -12.4630    2.6340 C.3    50  GLN50       0.0408
     32  CG        13.4120  -12.7640    1.3180 C.3    50  GLN50       0.0908
     33  CD        14.1710  -12.3400    0.0500 C.2    50  GLN50       0.2608
     34  OE1       13.6150  -12.4320   -1.0560 O.2    50  GLN50      -0.2717
     35  NE2       15.4460  -11.9120    0.1930 N.am   50  GLN50      -0.0878
     36  N         11.9900  -10.3860    3.9020 N.am   51  MET51      -0.1964
     37  CA        10.5990   -9.9390    3.8380 C.3    51  MET51       0.1722
     38  C         10.2120   -9.2600    5.1490 C.2    51  MET51       0.2458
     39  O         10.5240   -9.7650    6.2130 O.2    51  MET51      -0.2730
     40  CB         9.6880  -11.1560    3.6350 C.3    51  MET51       0.0427
     41  CG         9.8320  -11.8590    2.2880 C.3    51  MET51       0.0599
     42  SD         9.0480  -10.9030    0.9760 S.3    51  MET51      -0.1393
     43  CE         7.4960  -10.5190    1.7670 C.3    51  MET51       0.0692
     44  N          9.5040   -8.1230    5.0860 N.am   52  PRO52      -0.2716
     45  CA         9.1340   -7.5500    6.3750 C.3    52  PRO52       0.1536
     46  C          8.2070   -8.4660    7.1270 C.2    52  PRO52       0.2599
     47  O          7.4230   -9.2160    6.5120 O.2    52  PRO52      -0.2715
     48  CB         8.3290   -6.2970    5.9960 C.3    52  PRO52       0.0310
     49  CG         7.9490   -6.5120    4.5770 C.3    52  PRO52       0.0237
     50  CD         9.0090   -7.3300    3.9540 C.3    52  PRO52       0.0939
     51  N          8.2510   -8.3480    8.4520 N.am   53  THR53      -0.1951
     52  CA         7.3630   -9.0880    9.3230 C.3    53  THR53       0.1897
     53  C          6.0130   -8.3720    9.3360 C.2    53  THR53       0.2313
     54  O          5.9230   -7.2400    8.9020 O.2    53  THR53      -0.2863
     55  CB         7.9100   -9.1730   10.7520 C.3    53  THR53       0.1794
     56  OG1        7.9290   -7.8630   11.3360 O.3    53  THR53      -0.2208
     57  CG2        9.3020   -9.7810   10.7620 C.3    53  THR53       0.0378
     58  N          6.1720   -4.8850   10.9210 N.3    56  GLN56      -0.1245
     59  CA         6.8860   -4.0460    9.9580 C.3    56  GLN56       0.1566
     60  C          6.0120   -3.6650    8.7710 C.2    56  GLN56       0.2260
     61  O          5.9790   -2.5130    8.3670 O.2    56  GLN56      -0.2867
     62  CB         8.1510   -4.7600    9.4950 C.3    56  GLN56       0.0367
     63  CG         9.1400   -4.9720   10.6620 C.3    56  GLN56       0.0905
     64  CD        10.2060   -5.9980   10.3640 C.2    56  GLN56       0.2608
     65  OE1       10.3040   -6.5060    9.2280 O.2    56  GLN56      -0.2717
     66  NE2       11.0130   -6.3360   11.3970 N.am   56  GLN56      -0.0878
     67  N          6.6810  -10.6740   21.5790 N.3    75  THR75      -0.1203
     68  CA         8.1290  -10.8460   21.4820 C.3    75  THR75       0.1994
     69  C          8.5330  -11.7050   20.2680 C.2    75  THR75       0.2618
     70  O          7.9180  -12.7350   19.9750 O.2    75  THR75      -0.2717
     71  CB         8.6700  -11.5030   22.8010 C.3    75  THR75       0.1784
     72  OG1        8.2800  -10.6860   23.9180 O.3    75  THR75      -0.2211
     73  CG2       10.1790  -11.6370   22.7880 C.3    75  THR75       0.0376
     74  N          9.5790  -11.2870   19.5620 N.am   76  GLY76      -0.1942
     75  CA        10.0460  -12.0550   18.4210 C.3    76  GLY76       0.2014
     76  C          9.4070  -11.5870   17.1200 C.2    76  GLY76       0.2640
     77  O          9.5700  -12.2160   16.0860 O.2    76  GLY76      -0.2714
     78  N          8.6850  -10.4810   17.1540 N.am   77  SER77      -0.1935
     79  CA         7.9410  -10.0800   15.9750 C.3    77  SER77       0.2055
     80  C          8.7010   -9.1560   15.0130 C.2    77  SER77       0.2644
     81  O          8.1990   -8.9100   13.9180 O.2    77  SER77      -0.2714
     82  CB         6.6350   -9.3990   16.3870 C.3    77  SER77       0.2130
     83  OG         5.8090  -10.3250   17.0650 O.3    77  SER77      -0.2179
     84  N          9.8740   -8.6590   15.4370 N.am   78  GLY78      -0.1939
     85  CA        10.6660   -7.6570   14.7110 C.3    78  GLY78       0.2014
     86  C         10.2480   -6.2140   14.9700 C.2    78  GLY78       0.2639
     87  O         10.2800   -5.3610   14.0670 O.2    78  GLY78      -0.2714
     88  N          9.8420   -5.9110   16.2040 N.am   79  LYS79      -0.1963
     89  CA         9.3960   -4.5510   16.5050 C.3    79  LYS79       0.1728
     90  C         10.5560   -3.5410   16.4510 C.2    79  LYS79       0.2617
     91  O         10.3310   -2.3760   16.1220 O.2    79  LYS79      -0.2715
     92  CB         8.6650   -4.4680   17.8560 C.3    79  LYS79       0.0311
     93  CG         7.3510   -5.2290   17.8760 C.3    79  LYS79       0.0038
     94  CD         6.5540   -4.9730   19.1480 C.3    79  LYS79       0.0206
     95  CE         7.1970   -5.6860   20.3420 C.3    79  LYS79       0.1093
     96  NZ         7.4180   -7.1770   20.1250 N.3    79  LYS79      -0.1314
     97  N         11.7960   -3.9740   16.7130 N.am   80  THR80      -0.1937
     98  CA        12.9210   -3.0180   16.5960 C.3    80  THR80       0.2028
     99  C         13.0640   -2.4340   15.2000 C.2    80  THR80       0.2642
    100  O         13.1610   -1.2340   15.0370 O.2    80  THR80      -0.2714
    101  CB        14.2690   -3.6180   17.0380 C.3    80  THR80       0.1808
    102  OG1       14.1060   -4.1980   18.3270 O.3    80  THR80      -0.2208
    103  CG2       15.3610   -2.5440   17.1410 C.3    80  THR80       0.0379
    104  N         13.0450   -3.2790   14.1680 N.am   81  LEU81      -0.1977
    105  CA        13.2220   -2.7540   12.8140 C.3    81  LEU81       0.1596
    106  C         12.0060   -1.9730   12.3430 C.2    81  LEU81       0.2287
    107  O         12.1300   -1.0340   11.5200 O.2    81  LEU81      -0.2864
    108  CB        13.4620   -3.9190   11.8690 C.3    81  LEU81       0.0297
    109  CG        14.5660   -3.7110   10.8960 C.3    81  LEU81       0.0022
    110  CD1       15.7940   -3.6410   11.7840 C.3    81  LEU81       0.0001
    111  CD2       14.5670   -4.9330    9.9110 C.3    81  LEU81       0.0001
    112  N         21.3090   -3.0850   17.0710 N.3   117  GLU117     -0.1245
    113  CA        20.5280   -3.3150   15.8680 C.3   117  GLU117      0.1567
    114  C         20.5850   -2.0650   14.9650 C.2   117  GLU117      0.2260
    115  O         20.7850   -2.1690   13.7550 O.2   117  GLU117     -0.2867
    116  CB        19.0800   -3.6510   16.2320 C.3   117  GLU117      0.0388
    117  CG        18.1800   -3.8950   15.0250 C.3   117  GLU117      0.1160
    118  CD        18.0040   -5.4000   14.7390 C.2   117  GLU117      0.3649
    119  OE1       19.0350   -6.1040   14.6340 O.co2 117  GLU117     -0.2457
    120  OE2       16.8370   -5.8710   14.6440 O.co2 117  GLU117     -0.2457
    121  N         24.0020   -1.7280   13.3870 N.3   120  LYS120     -0.1245
    122  CA        24.2340   -2.7190   12.3370 C.3   120  LYS120      0.1561
    123  C         23.4650   -2.3740   11.0530 C.2   120  LYS120      0.2260
    124  O         24.0510   -2.3710    9.9680 O.2   120  LYS120     -0.2867
    125  CB        23.9000   -4.1290   12.8410 C.3   120  LYS120      0.0271
    126  CG        24.5860   -5.2630   12.0830 C.3   120  LYS120      0.0035
    127  CD        23.8010   -6.5530   12.2700 C.3   120  LYS120      0.0206
    128  CE        22.4590   -6.4960   11.5100 C.3   120  LYS120      0.1093
    129  NZ        21.4060   -7.2520   12.2490 N.3   120  LYS120     -0.1314
    130  N          9.4560    1.7530   23.5450 N.3   182  ASP182     -0.1225
    131  CA         9.5070    0.3290   23.3040 C.3   182  ASP182      0.1805
    132  C          9.1580   -0.3990   24.5960 C.2   182  ASP182      0.2597
    133  O          9.5370    0.0410   25.6900 O.2   182  ASP182     -0.2718
    134  CB        10.9060   -0.0390   22.8220 C.3   182  ASP182      0.1424
    135  CG        11.0080   -1.4650   22.2740 C.2   182  ASP182      0.3668
    136  OD1       10.0090   -2.0670   21.7870 O.co2 182  ASP182     -0.2456
    137  OD2       12.1350   -1.9740   22.3070 O.co2 182  ASP182     -0.2456
    138  N          8.4350   -1.5160   24.4710 N.am  183  GLU183     -0.1979
    139  CA         7.8900   -2.2440   25.6270 C.3   183  GLU183      0.1602
    140  C          7.0540   -1.3410   26.5510 C.2   183  GLU183      0.2287
    141  O          7.2490   -1.3150   27.7710 O.2   183  GLU183     -0.2864
    142  CB         9.0060   -2.9620   26.4130 C.3   183  GLU183      0.0415
    143  CG         9.8520   -3.9440   25.5670 C.3   183  GLU183      0.1163
    144  CD         9.1040   -5.2290   25.2390 C.2   183  GLU183      0.3649
    145  OE1        9.0140   -6.0890   26.1300 O.co2 183  GLU183     -0.2457
    146  OE2        8.5990   -5.3920   24.0910 O.co2 183  GLU183     -0.2457
@<TRIPOS>BOND
     1    34    33    2
     2    33    35   am
     3    33    32    1
     4     3     4    2
     5     3     2    1
     6    42    43    1
     7    42    41    1
     8     1     2    1
     9    32    31    1
    10     2     5    1
    11    30    29    2
    12     5     6    1
    13    41    40    1
    14    31    28    1
    15    29    28    1
    16    29    36   am
    17    28    27    1
    18     6     8   ar
    19     6     7   ar
    20    40    37    1
    21    37    36    1
    22    37    38    1
    23     8    10   ar
    24    50    49    1
    25    50    44    1
    26    19    18    2
    27    27    18   am
    28     7     9   ar
    29    49    48    1
    30    18    17    1
    31    44    38   am
    32    44    45    1
    33    38    39    2
    34    10    11   ar
    35     9    11   ar
    36    13    14    1
    37    13    12    1
    38    14    15    2
    39    14    16   am
    40    48    45    1
    41    16    17    1
    42    17    20    1
    43    45    46    1
    44    47    46    2
    45    20    21    1
    46    46    51   am
    47    21    23   ar
    48    21    22   ar
    49    61    60    2
    50    51    52    1
    51    60    59    1
    52    23    25   ar
    53    54    53    2
    54    22    24   ar
    55    65    64    2
    56    52    53    1
    57    52    55    1
    58    62    59    1
    59    62    63    1
    60   111   109    1
    61    59    58    1
    62   124   123    2
    63    25    26   ar
    64    64    63    1
    65    64    66   am
    66    24    26   ar
    67    55    57    1
    68    55    56    1
    69   109   110    1
    70   109   108    1
    71   123   122    1
    72   128   129    1
    73   128   127    1
    74   107   106    2
    75   108   105    1
    76   126   127    1
    77   126   125    1
    78   122   125    1
    79   122   121    1
    80   106   105    1
    81   105   104    1
    82   115   114    2
    83    81    80    2
    84    87    86    2
    85   104    99   am
    86   119   118   ar
    87   120   118   ar
    88    85    86    1
    89    85    84    1
    90   118   117    1
    91   114   113    1
    92    86    88   am
    93    80    84   am
    94    80    79    1
    95   117   116    1
    96   100    99    2
    97    99    98    1
    98   113   116    1
    99   113   112    1
   100    79    82    1
   101    79    78    1
   102    77    76    2
   103    91    90    2
   104    88    89    1
   105    82    83    1
   106    90    89    1
   107    90    97   am
   108    89    92    1
   109    98    97    1
   110    98   101    1
   111   101   103    1
   112   101   102    1
   113    76    78   am
   114    76    75    1
   115    92    93    1
   116    93    94    1
   117    75    74    1
   118    94    95    1
   119    74    69   am
   120    70    69    2
   121    96    95    1
   122    69    68    1
   123    68    67    1
   124    68    71    1
   125   136   135   ar
   126   135   137   ar
   127   135   134    1
   128    73    71    1
   129    71    72    1
   130   134   131    1
   131   131   130    1
   132   131   132    1
   133   146   144   ar
   134   138   132   am
   135   138   139    1
   136   132   133    2
   137   144   143    1
   138   144   145   ar
   139   143   142    1
   140   139   142    1
   141   139   140    1
   142   140   141    2
