@<TRIPOS>MOLECULE
tmp/3dksA00.pdb
 116 116 0 0 0
SMALL
GASTEIGER

@<TRIPOS>ATOM
      1  N          7.5030  -26.1970  -16.3310 N.3    32  HIS32      -0.1241
      2  CA         7.1430  -25.1150  -17.2350 C.3    32  HIS32       0.1621
      3  C          8.3300  -24.7150  -18.1120 C.2    32  HIS32       0.2264
      4  O          8.1380  -24.3500  -19.2590 O.2    32  HIS32      -0.2867
      5  CB         6.5360  -23.9190  -16.5000 C.3    32  HIS32       0.0745
      6  CG         5.7070  -23.0430  -17.3870 C.ar   32  HIS32       0.0817
      7  ND1        5.8370  -21.6720  -17.4160 N.ar   32  HIS32      -0.2268
      8  CD2        4.7530  -23.3500  -18.2990 C.ar   32  HIS32       0.1154
      9  CE1        4.9870  -21.1720  -18.2960 C.ar   32  HIS32       0.1986
     10  NE2        4.3160  -22.1670  -18.8430 N.ar   32  HIS32      -0.2212
     11  N         18.4870  -23.2890   -7.4730 N.3    63  PHE63      -0.1227
     12  CA        17.5280  -23.2860   -6.3620 C.3    63  PHE63       0.1736
     13  C         16.3950  -24.3110   -6.4920 C.2    63  PHE63       0.2595
     14  O         15.3250  -24.1640   -5.9050 O.2    63  PHE63      -0.2718
     15  CB        17.0180  -21.8600   -6.0230 C.3    63  PHE63       0.0547
     16  CG        16.4270  -21.0900   -7.1930 C.ar   63  PHE63      -0.0202
     17  CD1       15.2340  -21.4890   -7.7920 C.ar   63  PHE63      -0.0042
     18  CD2       17.0380  -19.9200   -7.6450 C.ar   63  PHE63      -0.0042
     19  CE1       14.6820  -20.7620   -8.8530 C.ar   63  PHE63      -0.0003
     20  CE2       16.4910  -19.1790   -8.7060 C.ar   63  PHE63      -0.0003
     21  CZ        15.3070  -19.6040   -9.3090 C.ar   63  PHE63      -0.0000
     22  N         16.6790  -25.3800   -7.2300 N.am   64  MET64      -0.1965
     23  CA        15.7400  -26.4510   -7.4970 C.3    64  MET64       0.1736
     24  C         16.5210  -27.7720   -7.5310 C.2    64  MET64       0.2617
     25  O         17.5020  -27.8870   -8.2680 O.2    64  MET64      -0.2715
     26  CB        15.1220  -26.1990   -8.8640 C.3    64  MET64       0.0427
     27  CG        13.6340  -26.2980   -8.9370 C.3    64  MET64       0.0599
     28  SD        13.0850  -25.3640  -10.3780 S.3    64  MET64      -0.1393
     29  CE        13.0930  -23.7030   -9.7370 C.3    64  MET64       0.0692
     30  N         16.0910  -28.7540   -6.7410 N.am   65  GLY65      -0.1955
     31  CA        16.7360  -30.0780   -6.6980 C.3    65  GLY65       0.1869
     32  C         17.9970  -30.2240   -5.8560 C.2    65  GLY65       0.2309
     33  O         18.7610  -31.1860   -6.0320 O.2    65  GLY65      -0.2863
     34  N         16.3970  -13.2290   -8.4470 N.3   147  LEU147     -0.1231
     35  CA        15.5860  -14.2850   -9.0460 C.3   147  LEU147      0.1693
     36  C         15.0320  -15.2740   -8.0260 C.2   147  LEU147      0.2592
     37  O         15.7800  -15.7750   -7.1920 O.2   147  LEU147     -0.2718
     38  CB        16.4000  -15.0310  -10.1040 C.3   147  LEU147      0.0284
     39  CG        15.5820  -15.9170  -11.0500 C.3   147  LEU147      0.0019
     40  CD1       14.7140  -15.0730  -11.9630 C.3   147  LEU147      0.0001
     41  CD2       16.5080  -16.8120  -11.8540 C.3   147  LEU147      0.0001
     42  N         13.7240  -15.5490   -8.1130 N.am  148  ARG148     -0.1966
     43  CA        13.0190  -16.4500   -7.1840 C.3   148  ARG148      0.1729
     44  C         12.3720  -17.6560   -7.8700 C.2   148  ARG148      0.2617
     45  O         11.9830  -18.6220   -7.2070 O.2   148  ARG148     -0.2715
     46  CB        11.9200  -15.6900   -6.4320 C.3   148  ARG148      0.0348
     47  CG        12.3870  -14.5220   -5.5680 C.3   148  ARG148      0.0492
     48  CD        12.3990  -14.8790   -4.0970 C.3   148  ARG148      0.2205
     49  NE        11.5540  -13.9710   -3.3190 N.pl3 148  ARG148     -0.0865
     50  CZ        11.9250  -12.7740   -2.8600 C.cat 148  ARG148      0.5346
     51  NH1       13.1450  -12.3040   -3.0890 N.pl3 148  ARG148      0.1354
     52  NH2       11.0650  -12.0380   -2.1650 N.pl3 148  ARG148      0.1354
     53  N         12.2330  -17.5900   -9.1910 N.am  149  GLY149     -0.1940
     54  CA        11.6440  -18.6870   -9.9440 C.3   149  GLY149      0.2014
     55  C         11.9680  -18.6790  -11.4250 C.2   149  GLY149      0.2639
     56  O         12.4990  -17.7050  -11.9580 O.2   149  GLY149     -0.2714
     57  N         11.6170  -19.7750  -12.0850 N.am  150  VAL150     -0.1963
     58  CA        11.8440  -19.9460  -13.5150 C.3   150  VAL150      0.1712
     59  C         10.5560  -20.4760  -14.1510 C.2   150  VAL150      0.2458
     60  O          9.6730  -20.9290  -13.4290 O.2   150  VAL150     -0.2730
     61  CB        13.0540  -20.8800  -13.7950 C.3   150  VAL150      0.0289
     62  CG1       14.3700  -20.1480  -13.4940 C.3   150  VAL150      0.0023
     63  CG2       12.9450  -22.1800  -12.9880 C.3   150  VAL150      0.0023
     64  N         10.4240  -20.3890  -15.4890 N.am  151  PRO151     -0.2716
     65  CA        11.3150  -19.7050  -16.4450 C.3   151  PRO151      0.1536
     66  C         11.2300  -18.1900  -16.2770 C.2   151  PRO151      0.2598
     67  O         10.2210  -17.6780  -15.8090 O.2   151  PRO151     -0.2715
     68  CB        10.7630  -20.1100  -17.8160 C.3   151  PRO151      0.0310
     69  CG         9.3690  -20.6010  -17.5720 C.3   151  PRO151      0.0237
     70  CD         9.2850  -21.0550  -16.1510 C.3   151  PRO151      0.0939
     71  N         12.3020  -17.4840  -16.6160 N.am  152  ALA152     -0.1978
     72  CA        12.2920  -16.0230  -16.5890 C.3   152  ALA152      0.1597
     73  C         13.1920  -15.5240  -17.7080 C.2   152  ALA152      0.2287
     74  O         14.1550  -16.1990  -18.0650 O.2   152  ALA152     -0.2864
     75  CB        12.7730  -15.5000  -15.2450 C.3   152  ALA152      0.0319
     76  N         11.7530   -7.2650  -17.5450 N.3   160  GLN160     -0.1231
     77  CA        11.4790   -8.6880  -17.4030 C.3   160  GLN160      0.1698
     78  C         10.2050   -9.0420  -18.1600 C.2   160  GLN160      0.2592
     79  O          9.1860   -8.3440  -18.0530 O.2   160  GLN160     -0.2718
     80  CB        11.3920   -9.0940  -15.9230 C.3   160  GLN160      0.0381
     81  CG        11.2310  -10.6010  -15.7020 C.3   160  GLN160      0.0905
     82  CD        11.0040  -10.9970  -14.2450 C.2   160  GLN160      0.2608
     83  OE1       10.8010  -12.1720  -13.9420 O.2   160  GLN160     -0.2717
     84  NE2       11.0410  -10.0270  -13.3450 N.am  160  GLN160     -0.0878
     85  N         10.2660  -10.1250  -18.9280 N.am  161  LEU161     -0.1966
     86  CA         9.1150  -10.5920  -19.6890 C.3   161  LEU161      0.1728
     87  C          8.0070  -11.0110  -18.7270 C.2   161  LEU161      0.2616
     88  O          8.2830  -11.5320  -17.6460 O.2   161  LEU161     -0.2715
     89  CB         9.4940  -11.7560  -20.6170 C.3   161  LEU161      0.0311
     90  CG        10.0820  -11.5050  -22.0180 C.3   161  LEU161      0.0022
     91  CD1        9.0040  -11.1020  -23.0380 C.3   161  LEU161      0.0001
     92  CD2       11.2450  -10.5060  -22.0040 C.3   161  LEU161      0.0001
     93  N          6.7630  -10.7400  -19.1290 N.am  162  ASN162     -0.1959
     94  CA         5.5880  -11.0130  -18.3080 C.3   162  ASN162      0.1804
     95  C          4.5930  -11.8710  -19.0810 C.2   162  ASN162      0.2463
     96  O          3.6190  -11.3500  -19.6380 O.2   162  ASN162     -0.2730
     97  CB         4.9410   -9.6980  -17.8550 C.3   162  ASN162      0.1195
     98  CG         4.0490   -9.8720  -16.6470 C.2   162  ASN162      0.2630
     99  OD1        4.4360  -10.4960  -15.6570 O.2   162  ASN162     -0.2716
    100  ND2        2.8470   -9.3040  -16.7140 N.am  162  ASN162     -0.0877
    101  N          4.8550  -13.1910  -19.1600 N.am  163  PRO163     -0.2716
    102  CA         3.9720  -14.0890  -19.9040 C.3   163  PRO163      0.1536
    103  C          2.5310  -14.0810  -19.3920 C.2   163  PRO163      0.2598
    104  O          1.6130  -14.3000  -20.1800 O.2   163  PRO163     -0.2715
    105  CB         4.6090  -15.4680  -19.7040 C.3   163  PRO163      0.0310
    106  CG         5.5530  -15.3110  -18.5630 C.3   163  PRO163      0.0237
    107  CD         6.0130  -13.9050  -18.5970 C.3   163  PRO163      0.0939
    108  N          2.3430  -13.8130  -18.0970 N.am  164  GLN164     -0.1978
    109  CA         1.0050  -13.7670  -17.4940 C.3   164  GLN164      0.1601
    110  C          0.1480  -12.6530  -18.0990 C.2   164  GLN164      0.2287
    111  O         -1.0810  -12.7400  -18.0940 O.2   164  GLN164     -0.2864
    112  CB         1.0890  -13.6350  -15.9620 C.3   164  GLN164      0.0394
    113  CG         1.5020  -12.2520  -15.4550 C.3   164  GLN164      0.0908
    114  CD         1.8670  -12.2270  -13.9750 C.2   164  GLN164      0.2608
    115  OE1        1.1460  -12.7600  -13.1240 O.2   164  GLN164     -0.2717
    116  NE2        2.9920  -11.5870  -13.6600 N.am  164  GLN164     -0.0878
@<TRIPOS>BOND
     1    91    90    1
     2    90    92    1
     3    90    89    1
     4    89    86    1
     5   104   103    2
     6   102   105    1
     7   102   103    1
     8   102   101    1
     9   105   106    1
    10    86    85    1
    11    86    87    1
    12    96    95    2
    13   103   108   am
    14     4     3    2
    15   101    95   am
    16   101   107    1
    17    93    87   am
    18    93    94    1
    19    95    94    1
    20    85    78   am
    21    10     8   ar
    22    10     9   ar
    23    87    88    2
    24   107   106    1
    25    94    97    1
    26     8     6   ar
    27     9     7   ar
    28    78    79    2
    29    78    77    1
    30     3     2    1
    31   110   111    2
    32   110   109    1
    33   108   109    1
    34    74    73    2
    35    97    98    1
    36    68    69    1
    37    68    65    1
    38    73    72    1
    39    69    70    1
    40    76    77    1
    41   109   112    1
    42     7     6   ar
    43    77    80    1
    44     6     5    1
    45     2     5    1
    46     2     1    1
    47   100    98   am
    48    98    99    2
    49    71    72    1
    50    71    66   am
    51    72    75    1
    52    65    66    1
    53    65    64    1
    54    66    67    2
    55    70    64    1
    56   112   113    1
    57    80    81    1
    58    81    82    1
    59    64    59   am
    60   113   114    1
    61    82    83    2
    62    82    84   am
    63    59    58    1
    64    59    60    2
    65   114   116   am
    66   114   115    2
    67    61    58    1
    68    61    62    1
    69    61    63    1
    70    58    57    1
    71    57    55   am
    72    40    39    1
    73    56    55    2
    74    41    39    1
    75    55    54    1
    76    39    38    1
    77    28    29    1
    78    28    27    1
    79    38    35    1
    80    54    53    1
    81    21    19   ar
    82    21    20   ar
    83    53    44   am
    84    35    34    1
    85    35    36    1
    86    27    26    1
    87    26    23    1
    88    19    17   ar
    89    20    18   ar
    90    25    24    2
    91    42    36   am
    92    42    43    1
    93    36    37    2
    94    44    45    2
    95    44    43    1
    96    17    16   ar
    97    18    16   ar
    98    24    23    1
    99    24    30   am
   100    23    22    1
   101    11    12    1
   102    22    13   am
   103    16    15    1
   104    43    46    1
   105    30    31    1
   106    31    32    1
   107    13    12    1
   108    13    14    2
   109    46    47    1
   110    12    15    1
   111    33    32    2
   112    47    48    1
   113    48    49    1
   114    49    50    2
   115    51    50    1
   116    50    52    1
