@<TRIPOS>MOLECULE
tmp/3dksC00.pdb
 92 92 0 0 0
SMALL
GASTEIGER

@<TRIPOS>ATOM
      1  N         41.3630   25.6630   -6.9780 N.3    29  PHE29      -0.1227
      2  CA        40.7850   24.3980   -7.4210 C.3    29  PHE29       0.1736
      3  C         39.2750   24.2780   -7.1080 C.2    29  PHE29       0.2596
      4  O         38.5880   23.4010   -7.6470 O.2    29  PHE29      -0.2718
      5  CB        41.5620   23.2500   -6.7700 C.3    29  PHE29       0.0547
      6  CG        41.5510   21.9770   -7.5620 C.ar   29  PHE29      -0.0202
      7  CD1       42.3340   21.8470   -8.7040 C.ar   29  PHE29      -0.0042
      8  CD2       40.7640   20.9000   -7.1580 C.ar   29  PHE29      -0.0042
      9  CE1       42.3290   20.6610   -9.4410 C.ar   29  PHE29      -0.0003
     10  CE2       40.7520   19.7090   -7.8830 C.ar   29  PHE29      -0.0003
     11  CZ        41.5360   19.5890   -9.0270 C.ar   29  PHE29      -0.0000
     12  N         38.7740   25.1740   -6.2560 N.am   30  CYS30      -0.1957
     13  CA        37.4260   25.0680   -5.6760 C.3    30  CYS30       0.1828
     14  C         36.3930   25.8660   -6.4600 C.2    30  CYS30       0.2467
     15  O         36.4970   27.0860   -6.5480 O.2    30  CYS30      -0.2730
     16  CB        37.4340   25.5260   -4.2060 C.3    30  CYS30       0.0996
     17  SG        35.8010   25.7010   -3.4320 S.3    30  CYS30      -0.0797
     18  N         35.3810   25.1730   -7.0310 N.am   31  PRO31      -0.2715
     19  CA        34.3690   25.8470   -7.8500 C.3    31  PRO31       0.1536
     20  C         33.5840   26.9040   -7.0710 C.2    31  PRO31       0.2598
     21  O         33.2250   27.9340   -7.6350 O.2    31  PRO31      -0.2715
     22  CB        33.4550   24.6910   -8.3070 C.3    31  PRO31       0.0310
     23  CG        34.3060   23.4590   -8.1730 C.3    31  PRO31       0.0237
     24  CD        35.1320   23.7210   -6.9510 C.3    31  PRO31       0.0939
     25  N         33.3550   26.6530   -5.7810 N.am   32  HIS32      -0.1974
     26  CA        32.6820   27.5990   -4.8790 C.3    32  HIS32       0.1656
     27  C         33.4940   28.8960   -4.7040 C.2    32  HIS32       0.2291
     28  O         32.9240   29.9980   -4.6040 O.2    32  HIS32      -0.2864
     29  CB        32.4530   26.9100   -3.5300 C.3    32  HIS32       0.0771
     30  CG        31.3080   27.4540   -2.7310 C.ar   32  HIS32       0.0820
     31  ND1       30.7270   28.6810   -2.9770 N.ar   32  HIS32      -0.2267
     32  CD2       30.6690   26.9480   -1.6490 C.ar   32  HIS32       0.1154
     33  CE1       29.7660   28.8960   -2.0970 C.ar   32  HIS32       0.1986
     34  NE2       29.7100   27.8600   -1.2800 N.ar   32  HIS32      -0.2212
     35  N         33.1060   30.9190   -7.9020 N.3    35  GLN35      -0.1245
     36  CA        31.8520   31.6660   -7.7420 C.3    35  GLN35       0.1566
     37  C         32.0560   32.9450   -6.9210 C.2    35  GLN35       0.2260
     38  O         31.6420   34.0340   -7.3390 O.2    35  GLN35      -0.2867
     39  CB        30.7680   30.7910   -7.0990 C.3    35  GLN35       0.0367
     40  CG        29.4160   31.5200   -6.8480 C.3    35  GLN35       0.0905
     41  CD        28.5180   31.6080   -8.0910 C.2    35  GLN35       0.2608
     42  OE1       28.9370   31.2920   -9.2080 O.2    35  GLN35      -0.2717
     43  NE2       27.2700   32.0330   -7.8890 N.am   35  GLN35      -0.0878
     44  N         44.5090   21.9400    0.8850 N.3    63  PHE63      -0.1227
     45  CA        43.7530   20.6920    1.0420 C.3    63  PHE63       0.1736
     46  C         42.8620   20.2760   -0.1450 C.2    63  PHE63       0.2595
     47  O         42.3420   19.1550   -0.1660 O.2    63  PHE63      -0.2718
     48  CB        43.0020   20.6190    2.3870 C.3    63  PHE63       0.0547
     49  CG        42.0160   21.7400    2.6310 C.ar   63  PHE63      -0.0202
     50  CD1       40.8040   21.7950    1.9420 C.ar   63  PHE63      -0.0042
     51  CD2       42.2770   22.7040    3.6010 C.ar   63  PHE63      -0.0042
     52  CE1       39.8780   22.8170    2.1880 C.ar   63  PHE63      -0.0003
     53  CE2       41.3550   23.7290    3.8580 C.ar   63  PHE63      -0.0003
     54  CZ        40.1550   23.7810    3.1470 C.ar   63  PHE63      -0.0000
     55  N         42.6990   21.1600   -1.1290 N.am   64  MET64      -0.1979
     56  CA        42.0630   20.7820   -2.3920 C.3    64  MET64       0.1605
     57  C         43.1290   20.6380   -3.4820 C.2    64  MET64       0.2287
     58  O         44.1070   21.3870   -3.5020 O.2    64  MET64      -0.2864
     59  CB        41.0140   21.8160   -2.8300 C.3    64  MET64       0.0413
     60  CG        39.9660   22.2280   -1.7750 C.3    64  MET64       0.0598
     61  SD        39.0440   20.8960   -0.9500 S.3    64  MET64      -0.1393
     62  CE        38.0150   20.2370   -2.2550 C.3    64  MET64       0.0692
     63  N         40.2670   25.1450   10.0190 N.3   147  LEU147     -0.1231
     64  CA        39.5870   25.2950    8.7360 C.3   147  LEU147      0.1693
     65  C         39.2780   23.9420    8.1010 C.2   147  LEU147      0.2592
     66  O         40.1820   23.1250    7.8910 O.2   147  LEU147     -0.2718
     67  CB        40.4260   26.1580    7.7800 C.3   147  LEU147      0.0284
     68  CG        39.7080   26.5820    6.4920 C.3   147  LEU147      0.0019
     69  CD1       38.6170   27.6240    6.7950 C.3   147  LEU147      0.0001
     70  CD2       40.6980   27.1210    5.4940 C.3   147  LEU147      0.0001
     71  N         37.9930   23.7300    7.8090 N.am  148  ARG148     -0.1966
     72  CA        37.4900   22.4860    7.2250 C.3   148  ARG148      0.1732
     73  C         37.0310   22.6600    5.7760 C.2   148  ARG148      0.2656
     74  O         36.8330   21.6730    5.0710 O.2   148  ARG148     -0.2711
     75  CB        36.3030   21.9530    8.0410 C.3   148  ARG148      0.0348
     76  CG        36.6020   21.6060    9.4800 C.3   148  ARG148      0.0492
     77  CD        36.9050   20.1310    9.6690 C.3   148  ARG148      0.2205
     78  NE        37.0840   19.8250   11.0880 N.pl3 148  ARG148     -0.0865
     79  CZ        37.6620   18.7270   11.5600 C.cat 148  ARG148      0.5346
     80  NH1       38.1290   17.8010   10.7300 N.pl3 148  ARG148      0.1354
     81  NH2       37.7770   18.5580   12.8720 N.pl3 148  ARG148      0.1354
     82  N         36.8400   23.9060    5.3430 N.am  149  GLY149     -0.1716
     83  CA        36.3610   24.1750    3.9830 C.2   149  GLY149      0.1480
     84  C         36.5620   25.5950    3.4740 C.2   149  GLY149      0.2820
     85  O         36.8390   26.5010    4.2420 O.2   149  GLY149     -0.2669
     86  N         36.4250   25.7730    2.1620 N.am  150  VAL150     -0.1943
     87  CA        36.4890   27.0950    1.5390 C.3   150  VAL150      0.1599
     88  C         35.3070   27.2560    0.5640 C.2   150  VAL150      0.2287
     89  O         34.7520   26.2530    0.1030 O.2   150  VAL150     -0.2864
     90  CB        37.8500   27.3650    0.8060 C.3   150  VAL150      0.0276
     91  CG1       38.9880   27.5860    1.8050 C.3   150  VAL150      0.0022
     92  CG2       38.1980   26.2470   -0.2290 C.3   150  VAL150      0.0022
@<TRIPOS>BOND
     1     9    11   ar
     2     9     7   ar
     3    42    41    2
     4    11    10   ar
     5     7     6   ar
     6    22    23    1
     7    22    19    1
     8    23    24    1
     9    41    43   am
    10    41    40    1
    11    35    36    1
    12    10     8   ar
    13    19    20    1
    14    19    18    1
    15    36    39    1
    16    36    37    1
    17     4     3    2
    18    21    20    2
    19     6     8   ar
    20     6     5    1
    21     2     3    1
    22     2     1    1
    23     2     5    1
    24    38    37    2
    25     3    12   am
    26    39    40    1
    27    20    25   am
    28    18    24    1
    29    18    14   am
    30    15    14    2
    31    14    13    1
    32    12    13    1
    33    25    26    1
    34    13    16    1
    35    26    27    1
    36    26    29    1
    37    27    28    2
    38    16    17    1
    39    29    30    1
    40    58    57    2
    41    57    56    1
    42    31    30   ar
    43    31    33   ar
    44    59    56    1
    45    59    60    1
    46    30    32   ar
    47    56    55    1
    48    62    61    1
    49    33    34   ar
    50    60    61    1
    51    32    34   ar
    52    55    46   am
    53    92    90    1
    54    47    46    2
    55    46    45    1
    56    89    88    2
    57    88    87    1
    58    90    87    1
    59    90    91    1
    60    44    45    1
    61    45    48    1
    62    87    86    1
    63    50    52   ar
    64    50    49   ar
    65    86    84   am
    66    52    54   ar
    67    48    49    1
    68    49    51   ar
    69    54    53   ar
    70    84    83    1
    71    84    85    2
    72    51    53   ar
    73    83    82    2
    74    74    73    2
    75    82    73    1
    76    70    68    1
    77    73    72    1
    78    68    69    1
    79    68    67    1
    80    72    71    1
    81    72    75    1
    82    67    64    1
    83    71    65   am
    84    66    65    2
    85    75    76    1
    86    65    64    1
    87    64    63    1
    88    76    77    1
    89    77    78    1
    90    80    79    1
    91    78    79    2
    92    79    81    1
