@<TRIPOS>MOLECULE
tmp/3dktC00.pdb
 171 162 0 0 0
SMALL
GASTEIGER

@<TRIPOS>ATOM
      1  N         71.8420   84.3520   -2.2810 N.3     1  MET1       -0.1245
      2  CA        70.5950   84.8210   -2.8830 C.3     1  MET1        0.1570
      3  C         69.8570   83.6570   -3.5670 C.2     1  MET1        0.2261
      4  O         70.4240   82.9450   -4.4090 O.2     1  MET1       -0.2867
      5  CB        70.8810   85.9750   -3.8520 C.3     1  MET1        0.0387
      6  CG        71.2700   87.3080   -3.1760 C.3     1  MET1        0.0595
      7  SD        69.8650   88.4850   -3.0870 S.3     1  MET1       -0.1393
      8  CE        68.4560   87.5180   -2.4680 C.3     1  MET1        0.0692
      9  N         68.9460   82.9610   -8.1260 N.3     4  LEU4       -0.1245
     10  CA        70.0000   82.3840   -8.9700 C.3     4  LEU4        0.1561
     11  C         70.0930   80.9570   -8.5070 C.2     4  LEU4        0.2260
     12  O         70.6240   80.6900   -7.4280 O.2     4  LEU4       -0.2867
     13  CB        71.3440   83.0610   -8.7210 C.3     4  LEU4        0.0270
     14  CG        71.4240   84.5220   -8.2770 C.3     4  LEU4        0.0019
     15  CD1       72.6310   84.7310   -7.4160 C.3     4  LEU4        0.0001
     16  CD2       71.4980   85.4510   -9.4490 C.3     4  LEU4        0.0001
     17  N         71.4170   78.4530   -7.8620 N.3     6  ARG6       -0.1245
     18  CA        72.7570   77.8970   -7.9130 C.3     6  ARG6        0.1563
     19  C         72.8630   76.5280   -7.2800 C.2     6  ARG6        0.2260
     20  O         73.7150   75.7270   -7.6680 O.2     6  ARG6       -0.2867
     21  CB        73.7370   78.8410   -7.2310 C.3     6  ARG6        0.0307
     22  CG        73.6480   80.2690   -7.7020 C.3     6  ARG6        0.0489
     23  CD        74.6440   81.1450   -6.9600 C.3     6  ARG6        0.2205
     24  NE        75.9660   80.5320   -6.8850 N.pl3   6  ARG6       -0.0865
     25  CZ        77.1000   81.2090   -6.7550 C.cat   6  ARG6        0.5346
     26  NH1       77.0860   82.5350   -6.7000 N.pl3   6  ARG6        0.1354
     27  NH2       78.2520   80.5560   -6.6920 N.pl3   6  ARG6        0.1354
     28  N         83.3410   81.5570   -9.5430 N.3    20  ASP20      -0.1239
     29  CA        83.1180   82.8780   -8.9760 C.3    20  ASP20       0.1674
     30  C         84.3810   83.7280   -8.9670 C.2    20  ASP20       0.2266
     31  O         84.3420   84.9080   -9.3040 O.2    20  ASP20      -0.2867
     32  CB        82.5840   82.7620   -7.5510 C.3    20  ASP20       0.1410
     33  CG        81.0850   82.6160   -7.4990 C.2    20  ASP20       0.3668
     34  OD1       80.3880   83.2070   -8.3500 O.co2  20  ASP20      -0.2456
     35  OD2       80.6080   81.9140   -6.5880 O.co2  20  ASP20      -0.2456
     36  N         85.5300   85.1220  -12.3680 N.3    23  ALA23      -0.1231
     37  CA        84.7090   86.2580  -12.7890 C.3    23  ALA23       0.1694
     38  C         85.0100   87.4950  -11.9820 C.2    23  ALA23       0.2591
     39  O         85.0120   88.6050  -12.5060 O.2    23  ALA23      -0.2718
     40  CB        83.2470   85.9320  -12.6610 C.3    23  ALA23       0.0304
     41  N         85.2420   87.3000  -10.6930 N.am   24  ARG24      -0.1980
     42  CA        85.5390   88.4120   -9.8080 C.3    24  ARG24       0.1597
     43  C         86.8230   89.1110  -10.2430 C.2    24  ARG24       0.2287
     44  O         86.8830   90.3370  -10.2730 O.2    24  ARG24      -0.2864
     45  CB        85.6550   87.9280   -8.3590 C.3    24  ARG24       0.0334
     46  CG        85.7190   89.0450   -7.3440 C.3    24  ARG24       0.0492
     47  CD        85.6330   88.5160   -5.9350 C.3    24  ARG24       0.2205
     48  NE        84.3700   87.8340   -5.6510 N.pl3  24  ARG24      -0.0865
     49  CZ        84.2890   86.5690   -5.2380 C.cat  24  ARG24       0.5346
     50  NH1       85.4030   85.8740   -5.0440 N.pl3  24  ARG24       0.1354
     51  NH2       83.1060   86.0060   -4.9860 N.pl3  24  ARG24       0.1354
     52  N         86.0060   91.1620  -13.6200 N.3    27  PHE27      -0.1227
     53  CA        85.1430   92.3000  -13.3160 C.3    27  PHE27       0.1736
     54  C         85.8680   93.4180  -12.5740 C.2    27  PHE27       0.2595
     55  O         85.5970   94.5890  -12.8160 O.2    27  PHE27      -0.2718
     56  CB        83.9160   91.8660  -12.5090 C.3    27  PHE27       0.0547
     57  CG        82.7900   91.3800  -13.3610 C.ar   27  PHE27      -0.0202
     58  CD1       82.2480   90.1240  -13.1770 C.ar   27  PHE27      -0.0042
     59  CD2       82.2920   92.1750  -14.3740 C.ar   27  PHE27      -0.0042
     60  CE1       81.2230   89.6880  -13.9810 C.ar   27  PHE27      -0.0003
     61  CE2       81.2610   91.7340  -15.1830 C.ar   27  PHE27      -0.0003
     62  CZ        80.7250   90.4950  -14.9860 C.ar   27  PHE27      -0.0000
     63  N         86.7780   93.0590  -11.6710 N.am   28  LYS28      -0.1980
     64  CA        87.4640   94.0510  -10.8410 C.3    28  LYS28       0.1596
     65  C         88.2550   95.0640  -11.6950 C.2    28  LYS28       0.2287
     66  O         88.2730   96.2620  -11.3880 O.2    28  LYS28      -0.2864
     67  CB        88.3550   93.3700   -9.7730 C.3    28  LYS28       0.0298
     68  CG        89.7920   93.0360  -10.2420 C.3    28  LYS28       0.0038
     69  CD        90.6030   92.1450   -9.2670 C.3    28  LYS28       0.0206
     70  CE        92.0550   91.9570   -9.7690 C.3    28  LYS28       0.1093
     71  NZ        92.7650   90.7730   -9.1940 N.3    28  LYS28      -0.1314
     72  N         85.5430   96.6680  -15.2370 N.3    31  LEU31      -0.1245
     73  CA        84.3820   97.5140  -14.9990 C.3    31  LEU31       0.1561
     74  C         84.8580   98.9420  -14.8660 C.2    31  LEU31       0.2260
     75  O         84.6310   99.6030  -13.8580 O.2    31  LEU31      -0.2867
     76  CB        83.6490   97.0710  -13.7380 C.3    31  LEU31       0.0270
     77  CG        82.7510   95.8660  -13.9650 C.3    31  LEU31       0.0019
     78  CD1       82.1640   95.3480  -12.6780 C.3    31  LEU31       0.0001
     79  CD2       81.6630   96.3050  -14.8870 C.3    31  LEU31       0.0001
     80  N         83.1590  101.7210  -12.8350 N.3    34  ARG34      -0.1231
     81  CA        83.1590  101.7980  -11.3730 C.3    34  ARG34       0.1694
     82  C         84.4450  102.3430  -10.7600 C.2    34  ARG34       0.2591
     83  O         84.4670  102.7460   -9.5980 O.2    34  ARG34      -0.2718
     84  CB        82.8560  100.4220  -10.7790 C.3    34  ARG34       0.0321
     85  CG        81.6440   99.7400  -11.3950 C.3    34  ARG34       0.0489
     86  CD        81.2140   98.5560  -10.5610 C.3    34  ARG34       0.2205
     87  NE        79.9670   97.9760  -11.0460 N.pl3  34  ARG34      -0.0865
     88  CZ        79.2900   97.0350  -10.4020 C.cat  34  ARG34       0.5346
     89  NH1       79.7370   96.5730   -9.2480 N.pl3  34  ARG34       0.1354
     90  NH2       78.1670   96.5560  -10.9070 N.pl3  34  ARG34       0.1354
     91  N         85.5190  102.3580  -11.5340 N.am   35  LYS35      -0.1980
     92  CA        86.7930  102.8300  -11.0100 C.3    35  LYS35       0.1596
     93  C         86.7410  104.2880  -10.5350 C.2    35  LYS35       0.2287
     94  O         87.5880  104.7040   -9.7430 O.2    35  LYS35      -0.2864
     95  CB        87.9200  102.6230  -12.0340 C.3    35  LYS35       0.0298
     96  CG        88.1190  101.1710  -12.4700 C.3    35  LYS35       0.0038
     97  CD        89.4910  100.9730  -13.1140 C.3    35  LYS35       0.0206
     98  CE        89.7420   99.5060  -13.4750 C.3    35  LYS35       0.1093
     99  NZ        91.0910   99.2910  -14.1020 N.3    35  LYS35      -0.1314
    100  N         83.2290  106.4000  -10.7830 N.3    37  VAL37      -0.1231
    101  CA        81.9050  106.8000  -10.3270 C.3    37  VAL37       0.1692
    102  C         81.6750  106.0980   -9.0030 C.2    37  VAL37       0.2592
    103  O         82.4270  105.1910   -8.6490 O.2    37  VAL37      -0.2718
    104  CB        80.8090  106.3970  -11.3190 C.3    37  VAL37       0.0266
    105  CG1       81.1330  106.9280  -12.6970 C.3    37  VAL37       0.0020
    106  CG2       80.6660  104.8960  -11.3600 C.3    37  VAL37       0.0020
    107  N         80.6620  106.5110   -8.2550 N.am   38  ASP38      -0.1960
    108  CA        80.3480  105.7900   -7.0280 C.3    38  ASP38       0.1840
    109  C         79.1760  104.8580   -7.2570 C.2    38  ASP38       0.2621
    110  O         78.4250  105.0340   -8.2060 O.2    38  ASP38      -0.2715
    111  CB        80.1010  106.7300   -5.8390 C.3    38  ASP38       0.1450
    112  CG        79.6250  108.1020   -6.2620 C.2    38  ASP38       0.3671
    113  OD1       78.7340  108.1750   -7.1320 O.co2  38  ASP38      -0.2456
    114  OD2       80.1450  109.1040   -5.7170 O.co2  38  ASP38      -0.2456
    115  N         79.0530  103.8500   -6.3990 N.am   39  VAL39      -0.1977
    116  CA        77.9900  102.8600   -6.4980 C.3    39  VAL39       0.1596
    117  C         77.0130  103.0340   -5.3380 C.2    39  VAL39       0.2287
    118  O         77.4330  103.3370   -4.2170 O.2    39  VAL39      -0.2864
    119  CB        78.5670  101.4390   -6.4650 C.3    39  VAL39       0.0276
    120  CG1       77.4660  100.4280   -6.6820 C.3    39  VAL39       0.0022
    121  CG2       79.6520  101.2750   -7.5230 C.3    39  VAL39       0.0022
    122  N         74.8730  101.0530   -3.0190 N.3    41  GLY41      -0.1210
    123  CA        74.7130   99.6960   -2.4990 C.3    41  GLY41       0.1940
    124  C         73.4390   98.9750   -2.8990 C.2    41  GLY41       0.2453
    125  O         72.3900   99.6030   -3.0390 O.2    41  GLY41      -0.2732
    126  N         73.5150   97.6420   -3.0500 N.am   42  PRO42      -0.2728
    127  CA        72.4510   96.8580   -3.6910 C.3    42  PRO42       0.1401
    128  C         71.0750   97.1060   -3.0820 C.2    42  PRO42       0.2269
    129  O         70.8770   96.7450   -1.9240 O.2    42  PRO42      -0.2865
    130  CB        72.8820   95.4040   -3.4500 C.3    42  PRO42       0.0296
    131  CG        74.3300   95.4620   -3.1850 C.3    42  PRO42       0.0237
    132  CD        74.5830   96.7870   -2.5080 C.3    42  PRO42       0.0939
    133  N         70.2620   94.5390   -7.8740 N.3   228  GLN228     -0.1231
    134  CA        71.0000   93.3590   -7.4870 C.3   228  GLN228      0.1698
    135  C         72.3540   93.4720   -8.1510 C.2   228  GLN228      0.2592
    136  O         72.4360   93.6510   -9.3530 O.2   228  GLN228     -0.2718
    137  CB        70.2890   92.0960   -7.9460 C.3   228  GLN228      0.0381
    138  CG        71.1130   90.8400   -7.7910 C.3   228  GLN228      0.0905
    139  CD        71.3570   90.4810   -6.3500 C.2   228  GLN228      0.2608
    140  OE1       71.3050   91.3300   -5.4560 O.2   228  GLN228     -0.2717
    141  NE2       71.6370   89.2130   -6.1130 N.am  228  GLN228     -0.0878
    142  N         73.4250   93.4040   -7.3740 N.am  229  ASP229     -0.1960
    143  CA        74.7340   93.5340   -7.9810 C.3   229  ASP229      0.1840
    144  C         75.0370   92.3430   -8.8730 C.2   229  ASP229      0.2622
    145  O         74.3280   91.3360   -8.8330 O.2   229  ASP229     -0.2715
    146  CB        75.8200   93.6890   -6.9290 C.3   229  ASP229      0.1450
    147  CG        77.1690   94.0270   -7.5440 C.2   229  ASP229      0.3671
    148  OD1       78.0550   93.1520   -7.5540 O.co2 229  ASP229     -0.2456
    149  OD2       77.3440   95.1560   -8.0450 O.co2 229  ASP229     -0.2456
    150  N         76.0920   92.4720   -9.6710 N.am  230  LEU230     -0.1963
    151  CA        76.5770   91.4090  -10.5540 C.3   230  LEU230      0.1728
    152  C         76.7080   90.0370   -9.9080 C.2   230  LEU230      0.2617
    153  O         77.6550   89.8380   -9.1600 O.2   230  LEU230     -0.2715
    154  CB        77.9730   91.7770  -11.0190 C.3   230  LEU230      0.0311
    155  CG        78.0580   92.6740  -12.2350 C.3   230  LEU230      0.0022
    156  CD1       79.5100   93.0990  -12.3930 C.3   230  LEU230      0.0001
    157  CD2       77.5290   91.9330  -13.4620 C.3   230  LEU230      0.0001
    158  N         75.8250   89.0870  -10.2400 N.am  231  SER231     -0.1936
    159  CA        75.8510   87.7390   -9.6460 C.3   231  SER231      0.2055
    160  C         75.9640   86.6410  -10.6970 C.2   231  SER231      0.2642
    161  O         75.7180   86.8830  -11.8740 O.2   231  SER231     -0.2714
    162  CB        74.5770   87.5000   -8.8340 C.3   231  SER231      0.2130
    163  OG        74.0440   88.7130   -8.3260 O.3   231  SER231     -0.2179
    164  N         76.3100   85.4290  -10.2750 N.am  232  ILE232     -0.1977
    165  CA        76.2330   84.2710  -11.1690 C.3   232  ILE232      0.1596
    166  C         75.1880   83.2430  -10.7170 C.2   232  ILE232      0.2287
    167  O         75.1020   82.9270   -9.5380 O.2   232  ILE232     -0.2864
    168  CB        77.5560   83.5560  -11.2550 C.3   232  ILE232      0.0276
    169  CG1       78.6260   84.5020  -11.7480 C.3   232  ILE232      0.0022
    170  CG2       77.4420   82.3880  -12.1960 C.3   232  ILE232      0.0022
    171  CD1       79.9440   83.8060  -11.9200 C.3   232  ILE232      0.0001
@<TRIPOS>BOND
     1    72    73    1
     2    61    62   ar
     3    61    59   ar
     4    73    74    1
     5    73    76    1
     6    62    60   ar
     7    79    77    1
     8    74    75    2
     9    59    57   ar
    10    99    98    1
    11    60    58   ar
    12    77    76    1
    13    77    78    1
    14    52    53    1
    15    98    97    1
    16   157   155    1
    17    57    58   ar
    18    57    56    1
    19    53    54    1
    20    53    56    1
    21    97    96    1
    22    80    81    1
    23    55    54    2
    24    37    40    1
    25    37    36    1
    26    37    38    1
    27   105   104    1
    28    54    63   am
    29    39    38    2
    30    96    95    1
    31   156   155    1
    32   155   154    1
    33   170   168    1
    34    95    92    1
    35    38    41   am
    36   171   169    1
    37   161   160    2
    38   169   168    1
    39    65    66    2
    40    65    64    1
    41    63    64    1
    42    91    92    1
    43    91    82   am
    44    85    84    1
    45    85    86    1
    46    81    84    1
    47    81    82    1
    48   106   104    1
    49   104   101    1
    50   168   165    1
    51   165   166    1
    52   165   164    1
    53    87    86    1
    54    87    88    2
    55   154   151    1
    56    92    93    1
    57    90    88    1
    58    64    67    1
    59   100   101    1
    60    82    83    2
    61   166   167    2
    62   160   164   am
    63   160   159    1
    64    41    42    1
    65   151   152    1
    66   151   150    1
    67    93    94    2
    68    88    89    1
    69   101   102    1
    70    44    43    2
    71    43    42    1
    72    68    67    1
    73    68    69    1
    74   158   152   am
    75   158   159    1
    76   152   153    2
    77    42    45    1
    78    70    69    1
    79    70    71    1
    80   150   144   am
    81   159   162    1
    82    28    29    1
    83    16    14    1
    84   136   135    2
    85    31    30    2
    86   102   103    2
    87   102   107   am
    88    29    30    1
    89    29    32    1
    90    10    13    1
    91    10    11    1
    92    10     9    1
    93   144   145    2
    94   144   143    1
    95   162   163    1
    96    13    14    1
    97    11    12    2
    98    45    46    1
    99    34    33   ar
   100    14    15    1
   101   107   108    1
   102   110   109    2
   103   135   134    1
   104   135   142   am
   105   149   147   ar
   106   143   142    1
   107   143   146    1
   108   137   138    1
   109   137   134    1
   110    18    17    1
   111    18    19    1
   112    18    21    1
   113   133   134    1
   114   138   139    1
   115    22    21    1
   116    22    23    1
   117    20    19    2
   118   148   147   ar
   119    32    33    1
   120   147   146    1
   121   121   119    1
   122    33    35   ar
   123    46    47    1
   124   109   108    1
   125   109   115   am
   126   113   112   ar
   127   108   111    1
   128    23    24    1
   129    24    25    2
   130    25    26    1
   131    25    27    1
   132   120   119    1
   133   116   119    1
   134   116   115    1
   135   116   117    1
   136   139   141   am
   137   139   140    2
   138   112   111    1
   139   112   114   ar
   140    47    48    1
   141    48    49    2
   142   117   118    2
   143    49    50    1
   144    49    51    1
   145     4     3    2
   146     5     6    1
   147     5     2    1
   148   127   130    1
   149   127   128    1
   150   127   126    1
   151     3     2    1
   152   130   131    1
   153   131   132    1
   154     6     7    1
   155     7     8    1
   156   128   129    2
   157   126   124   am
   158   126   132    1
   159   125   124    2
   160   122   123    1
   161   124   123    1
   162     2     1    1
