@<TRIPOS>MOLECULE
tmp/3dl9B02.pdb
 212 199 0 0 0
SMALL
GASTEIGER

@<TRIPOS>ATOM
      1  N        -26.2610   11.1920   -5.9080 N.3    76  LEU76      -0.1231
      2  CA       -26.7090   12.0260   -7.0480 C.3    76  LEU76       0.1693
      3  C        -25.5950   12.1880   -8.0930 C.2    76  LEU76       0.2592
      4  O        -25.8250   11.9970   -9.2920 O.2    76  LEU76      -0.2718
      5  CB       -27.1840   13.4180   -6.5920 C.3    76  LEU76       0.0284
      6  CG       -27.8510   14.3040   -7.6590 C.3    76  LEU76       0.0019
      7  CD1      -29.2090   13.7540   -8.0560 C.3    76  LEU76       0.0001
      8  CD2      -27.9940   15.7250   -7.1680 C.3    76  LEU76       0.0001
      9  N        -24.3900   12.5180   -7.6250 N.am   77  PHE77      -0.1976
     10  CA       -23.2720   12.7970   -8.5200 C.3    77  PHE77       0.1639
     11  C        -22.7490   11.5500   -9.1600 C.2    77  PHE77       0.2290
     12  O        -22.2850   11.5740  -10.2930 O.2    77  PHE77      -0.2864
     13  CB       -22.1450   13.5060   -7.7800 C.3    77  PHE77       0.0560
     14  CG       -22.5680   14.7930   -7.1170 C.ar   77  PHE77      -0.0200
     15  CD1      -21.9110   15.2420   -5.9760 C.ar   77  PHE77      -0.0042
     16  CD2      -23.6300   15.5500   -7.6110 C.ar   77  PHE77      -0.0042
     17  CE1      -22.2960   16.4230   -5.3430 C.ar   77  PHE77      -0.0003
     18  CE2      -24.0190   16.7420   -6.9810 C.ar   77  PHE77      -0.0003
     19  CZ       -23.3530   17.1700   -5.8450 C.ar   77  PHE77      -0.0000
     20  N        -25.3460   10.8290  -11.8070 N.3    80  MET80      -0.1230
     21  CA       -25.3570   11.7930  -12.9170 C.3    80  MET80       0.1702
     22  C        -24.1420   11.6700  -13.8200 C.2    80  MET80       0.2593
     23  O        -24.2960   11.5910  -15.0240 O.2    80  MET80      -0.2718
     24  CB       -25.4180   13.2370  -12.3990 C.3    80  MET80       0.0401
     25  CG       -26.6870   13.6200  -11.6750 C.3    80  MET80       0.0596
     26  SD       -28.1670   13.5950  -12.6910 S.3    80  MET80      -0.1393
     27  CE       -28.8380   11.9640  -12.3240 C.3    80  MET80       0.0692
     28  N        -22.9420   11.6800  -13.2330 N.am   81  THR81      -0.1953
     29  CA       -21.6860   11.7160  -14.0060 C.3    81  THR81       0.1897
     30  C        -20.5980   10.6850  -13.6110 C.2    81  THR81       0.2313
     31  O        -19.4950   10.7070  -14.1670 O.2    81  THR81      -0.2863
     32  CB       -21.0670   13.1130  -13.9130 C.3    81  THR81       0.1794
     33  OG1      -20.5230   13.3150  -12.6010 O.3    81  THR81      -0.2208
     34  CG2      -22.1210   14.1670  -14.1940 C.3    81  THR81       0.0378
     35  N        -16.6600   19.2420  -13.6530 N.3    87  LEU87      -0.1231
     36  CA       -17.1640   19.9360  -12.4670 C.3    87  LEU87       0.1693
     37  C        -17.2640   19.0110  -11.2370 C.2    87  LEU87       0.2592
     38  O        -16.8110   19.3850  -10.1580 O.2    87  LEU87      -0.2718
     39  CB       -18.5220   20.6000  -12.7860 C.3    87  LEU87       0.0284
     40  CG       -19.2210   21.4510  -11.7220 C.3    87  LEU87       0.0019
     41  CD1      -20.1130   22.4870  -12.3610 C.3    87  LEU87       0.0001
     42  CD2      -20.0340   20.6000  -10.7830 C.3    87  LEU87       0.0001
     43  N        -17.8310   17.8120  -11.3870 N.am   88  ASN88      -0.1974
     44  CA       -17.8750   16.8660  -10.2600 C.3    88  ASN88       0.1688
     45  C        -16.8930   15.7120  -10.3920 C.2    88  ASN88       0.2292
     46  O        -17.0880   14.6600   -9.7940 O.2    88  ASN88      -0.2864
     47  CB       -19.3070   16.3430  -10.0340 C.3    88  ASN88       0.1181
     48  CG       -20.1000   17.2090   -9.0560 C.2    88  ASN88       0.2629
     49  OD1      -19.5330   17.9330   -8.2330 O.2    88  ASN88      -0.2716
     50  ND2      -21.4120   17.1300   -9.1440 N.am   88  ASN88      -0.0877
     51  N        -32.2980   21.7750  -17.3850 N.3   176  PHE176     -0.1241
     52  CA       -30.9770   21.7240  -16.7340 C.3   176  PHE176      0.1605
     53  C        -30.9250   22.7000  -15.5320 C.2   176  PHE176      0.2264
     54  O        -30.3750   22.3910  -14.4780 O.2   176  PHE176     -0.2867
     55  CB       -29.8890   22.0970  -17.7550 C.3   176  PHE176      0.0534
     56  CG       -28.5760   21.3920  -17.5550 C.ar  176  PHE176     -0.0203
     57  CD1      -27.7610   21.1300  -18.6570 C.ar  176  PHE176     -0.0042
     58  CD2      -28.1490   20.9800  -16.2860 C.ar  176  PHE176     -0.0042
     59  CE1      -26.5530   20.4890  -18.5180 C.ar  176  PHE176     -0.0003
     60  CE2      -26.9290   20.3230  -16.1280 C.ar  176  PHE176     -0.0003
     61  CZ       -26.1260   20.0750  -17.2530 C.ar  176  PHE176     -0.0000
     62  N        -32.6980   21.3930  -12.4960 N.3   179  ASN179     -0.1225
     63  CA       -31.8470   20.4700  -11.7680 C.3   179  ASN179      0.1785
     64  C        -30.8640   21.1570  -10.7950 C.2   179  ASN179      0.2597
     65  O        -30.6170   20.6460   -9.6970 O.2   179  ASN179     -0.2718
     66  CB       -31.0970   19.5360  -12.7320 C.3   179  ASN179      0.1169
     67  CG       -32.0130   18.5080  -13.3820 C.2   179  ASN179      0.2627
     68  OD1      -33.2330   18.4980  -13.1410 O.2   179  ASN179     -0.2716
     69  ND2      -31.4360   17.6500  -14.2300 N.am  179  ASN179     -0.0877
     70  N        -30.3260   22.3020  -11.1940 N.am  180  VAL180     -0.1980
     71  CA       -29.4220   23.0760  -10.3310 C.3   180  VAL180      0.1595
     72  C        -30.1760   23.6330   -9.1120 C.2   180  VAL180      0.2287
     73  O        -29.5950   23.8180   -8.0480 O.2   180  VAL180     -0.2864
     74  CB       -28.7290   24.2310  -11.1150 C.3   180  VAL180      0.0276
     75  CG1      -27.8360   25.0620  -10.1870 C.3   180  VAL180      0.0022
     76  CG2      -27.9470   23.6620  -12.3070 C.3   180  VAL180      0.0022
     77  N        -31.2170   20.2390   -6.8520 N.3   183  ALA183     -0.1245
     78  CA       -30.0380   19.7190   -6.1530 C.3   183  ALA183      0.1562
     79  C        -29.8770   20.2840   -4.7260 C.2   183  ALA183      0.2260
     80  O        -29.1470   19.7260   -3.9170 O.2   183  ALA183     -0.2867
     81  CB       -28.7680   19.9780   -6.9820 C.3   183  ALA183      0.0290
     82  N        -35.7440   15.4090  -10.9920 N.3   208  LEU208     -0.1245
     83  CA       -34.3450   15.6800  -11.3270 C.3   208  LEU208      0.1561
     84  C        -33.7550   14.6180  -12.2420 C.2   208  LEU208      0.2260
     85  O        -32.9500   14.9250  -13.0970 O.2   208  LEU208     -0.2867
     86  CB       -33.4800   15.8070  -10.0550 C.3   208  LEU208      0.0270
     87  CG       -32.0830   16.4710  -10.1660 C.3   208  LEU208      0.0019
     88  CD1      -31.6400   16.9680   -8.8050 C.3   208  LEU208      0.0001
     89  CD2      -31.0070   15.5670  -10.7650 C.3   208  LEU208      0.0001
     90  N        -32.5510   14.9820  -16.0940 N.3   212  ALA212     -0.1245
     91  CA       -31.1810   14.5990  -16.4250 C.3   212  ALA212      0.1562
     92  C        -31.1180   13.6490  -17.6250 C.2   212  ALA212      0.2260
     93  O        -30.2160   13.7520  -18.4470 O.2   212  ALA212     -0.2867
     94  CB       -30.4970   13.9970  -15.2360 C.3   212  ALA212      0.0290
     95  N        -31.9550   15.8370  -20.7760 N.3   215  VAL215     -0.1231
     96  CA       -30.8040   16.6820  -21.0400 C.3   215  VAL215      0.1692
     97  C        -29.6670   15.8640  -21.6200 C.2   215  VAL215      0.2592
     98  O        -28.9670   16.3360  -22.4980 O.2   215  VAL215     -0.2718
     99  CB       -30.3540   17.4360  -19.7430 C.3   215  VAL215      0.0266
    100  CG1      -28.9580   18.0190  -19.8850 C.3   215  VAL215      0.0020
    101  CG2      -31.3490   18.5190  -19.3980 C.3   215  VAL215      0.0020
    102  N        -29.4860   14.6350  -21.1460 N.am  216  TYR216     -0.1976
    103  CA       -28.4150   13.7610  -21.6590 C.3   216  TYR216      0.1639
    104  C        -28.6410   13.4080  -23.1160 C.2   216  TYR216      0.2290
    105  O        -27.7090   13.4000  -23.9080 O.2   216  TYR216     -0.2864
    106  CB       -28.3400   12.4580  -20.8580 C.3   216  TYR216      0.0560
    107  CG       -27.1750   11.5740  -21.2530 C.ar  216  TYR216     -0.0198
    108  CD1      -25.9330   11.7350  -20.6480 C.ar  216  TYR216     -0.0009
    109  CD2      -27.3040   10.5960  -22.2400 C.ar  216  TYR216     -0.0009
    110  CE1      -24.8540   10.9530  -20.9910 C.ar  216  TYR216      0.0417
    111  CE2      -26.2090    9.8010  -22.6070 C.ar  216  TYR216      0.0417
    112  CZ       -24.9880    9.9890  -21.9670 C.ar  216  TYR216      0.1957
    113  OH       -23.8760    9.2310  -22.2780 O.3   216  TYR216     -0.2866
    114  N        -28.1760   16.6500  -25.3820 N.3   219  LEU219     -0.1245
    115  CA       -26.7800   17.0030  -25.5530 C.3   219  LEU219      0.1561
    116  C        -26.0250   16.0110  -26.4350 C.2   219  LEU219      0.2260
    117  O        -25.2120   16.4330  -27.2390 O.2   219  LEU219     -0.2867
    118  CB       -26.0550   17.1720  -24.2090 C.3   219  LEU219      0.0270
    119  CG       -26.4150   18.4060  -23.3840 C.3   219  LEU219      0.0019
    120  CD1      -25.5550   18.4260  -22.1410 C.3   219  LEU219      0.0001
    121  CD2      -26.2470   19.6740  -24.1890 C.3   219  LEU219      0.0001
    122  N        -20.0760   14.2870  -23.1330 N.3   263  ILE263     -0.1231
    123  CA       -21.4120   14.7570  -22.7670 C.3   263  ILE263      0.1692
    124  C        -21.4090   15.4660  -21.4110 C.2   263  ILE263      0.2592
    125  O        -21.9920   16.5420  -21.2800 O.2   263  ILE263     -0.2718
    126  CB       -22.4570   13.6260  -22.7350 C.3   263  ILE263      0.0266
    127  CG1      -22.6790   13.0820  -24.1660 C.3   263  ILE263      0.0019
    128  CG2      -23.7790   14.1380  -22.0940 C.3   263  ILE263      0.0020
    129  CD1      -23.2640   11.6740  -24.2470 C.3   263  ILE263      0.0001
    130  N        -20.7500   14.8950  -20.4040 N.am  264  PHE264     -0.1976
    131  CA       -20.8430   15.4810  -19.0710 C.3   264  PHE264      0.1639
    132  C        -20.1210   16.8050  -19.0140 C.2   264  PHE264      0.2290
    133  O        -20.6720   17.7810  -18.4910 O.2   264  PHE264     -0.2864
    134  CB       -20.3240   14.5500  -17.9570 C.3   264  PHE264      0.0560
    135  CG       -21.0060   13.2060  -17.9070 C.ar  264  PHE264     -0.0200
    136  CD1      -22.3860   13.0920  -18.0780 C.ar  264  PHE264     -0.0042
    137  CD2      -20.2670   12.0520  -17.6850 C.ar  264  PHE264     -0.0042
    138  CE1      -23.0140   11.8450  -18.0430 C.ar  264  PHE264     -0.0003
    139  CE2      -20.8880   10.8060  -17.6480 C.ar  264  PHE264     -0.0003
    140  CZ       -22.2600   10.7090  -17.8230 C.ar  264  PHE264     -0.0000
    141  N        -22.1040   19.5870  -20.8930 N.3   267  GLY267     -0.1210
    142  CA       -23.2690   20.0240  -20.1070 C.3   267  GLY267      0.1956
    143  C        -22.8540   20.8490  -18.9030 C.2   267  GLY267      0.2611
    144  O        -23.4430   21.8790  -18.6000 O.2   267  GLY267     -0.2717
    145  N        -21.8200   20.3880  -18.2230 N.am  268  GLU268     -0.1979
    146  CA       -21.2940   21.0970  -17.0770 C.3   268  GLU268      0.1602
    147  C        -20.8690   22.5380  -17.4370 C.2   268  GLU268      0.2287
    148  O        -21.1890   23.4680  -16.7070 O.2   268  GLU268     -0.2864
    149  CB       -20.1400   20.2900  -16.4400 C.3   268  GLU268      0.0415
    150  CG       -20.6270   19.0550  -15.6060 C.3   268  GLU268      0.1163
    151  CD       -19.4860   18.1190  -15.1220 C.2   268  GLU268      0.3649
    152  OE1      -19.7620   17.2370  -14.2570 O.co2 268  GLU268     -0.2457
    153  OE2      -18.3230   18.2770  -15.5950 O.co2 268  GLU268     -0.2457
    154  N        -24.1920   24.7620  -18.3340 N.3   271  ILE271     -0.1231
    155  CA       -24.9600   25.2350  -17.1890 C.3   271  ILE271      0.1692
    156  C        -24.1260   26.0900  -16.2360 C.2   271  ILE271      0.2591
    157  O        -24.6420   27.0060  -15.6380 O.2   271  ILE271     -0.2718
    158  CB       -25.6500   24.0690  -16.4390 C.3   271  ILE271      0.0266
    159  CG1      -26.9000   24.5880  -15.7140 C.3   271  ILE271      0.0019
    160  CG2      -24.6990   23.3720  -15.4920 C.3   271  ILE271      0.0020
    161  CD1      -28.0090   25.0340  -16.6590 C.3   271  ILE271      0.0001
    162  N        -22.8370   25.8130  -16.1190 N.am  272  ALA272     -0.1980
    163  CA       -21.9670   26.6180  -15.2560 C.3   272  ALA272      0.1597
    164  C        -22.0100   28.0490  -15.7170 C.2   272  ALA272      0.2287
    165  O        -22.1400   28.9620  -14.9050 O.2   272  ALA272     -0.2864
    166  CB       -20.5430   26.1080  -15.2880 C.3   272  ALA272      0.0319
    167  N        -26.3930   29.5670  -16.0630 N.3   275  GLU275     -0.1231
    168  CA       -27.0540   29.8650  -14.7840 C.3   275  GLU275      0.1699
    169  C        -26.3990   30.9840  -13.9880 C.2   275  GLU275      0.2592
    170  O        -27.0940   31.8480  -13.4680 O.2   275  GLU275     -0.2718
    171  CB       -27.1740   28.6190  -13.8940 C.3   275  GLU275      0.0402
    172  CG       -28.5420   27.9450  -13.9880 C.3   275  GLU275      0.1161
    173  CD       -29.5550   28.5590  -13.0430 C.2   275  GLU275      0.3649
    174  OE1      -29.6200   28.1090  -11.8790 O.co2 275  GLU275     -0.2457
    175  OE2      -30.2920   29.4900  -13.4460 O.co2 275  GLU275     -0.2457
    176  N        -25.0760   30.9800  -13.8890 N.am  276  THR276     -0.1953
    177  CA       -24.3950   31.9020  -12.9810 C.3   276  THR276      0.1897
    178  C        -24.4390   33.3490  -13.5080 C.2   276  THR276      0.2313
    179  O        -24.9100   34.2820  -12.8240 O.2   276  THR276     -0.2863
    180  CB       -22.9200   31.4830  -12.7550 C.3   276  THR276      0.1794
    181  OG1      -22.2610   31.3460  -14.0270 O.3   276  THR276     -0.2208
    182  CG2      -22.8190   30.1710  -11.9770 C.3   276  THR276      0.0378
    183  N        -23.4540   32.1480   -6.2740 N.3   337  VAL337     -0.1245
    184  CA       -23.0850   30.7950   -5.8240 C.3   337  VAL337      0.1561
    185  C        -22.7140   30.8620   -4.3370 C.2   337  VAL337      0.2260
    186  O        -21.5430   31.0120   -3.9980 O.2   337  VAL337     -0.2867
    187  CB       -21.9410   30.2150   -6.6620 C.3   337  VAL337      0.0252
    188  CG1      -21.8360   28.7120   -6.4460 C.3   337  VAL337      0.0019
    189  CG2      -22.1880   30.5120   -8.1170 C.3   337  VAL337      0.0019
    190  N        -19.4040   24.9650   -4.9050 N.3   341  ILE341     -0.1245
    191  CA       -19.6810   23.5810   -5.2640 C.3   341  ILE341      0.1561
    192  C        -19.0180   22.7500   -4.1700 C.2   341  ILE341      0.2260
    193  O        -17.8550   22.9910   -3.8200 O.2   341  ILE341     -0.2867
    194  CB       -19.0970   23.2410   -6.6680 C.3   341  ILE341      0.0252
    195  CG1      -19.7550   24.1280   -7.7370 C.3   341  ILE341      0.0019
    196  CG2      -19.2810   21.7890   -7.0040 C.3   341  ILE341      0.0019
    197  CD1      -19.1000   24.0290   -9.1180 C.3   341  ILE341      0.0001
    198  N        -28.8740   25.8170   -5.7220 N.3   449  MET449     -0.1230
    199  CA       -27.4260   25.8130   -5.6330 C.3   449  MET449      0.1702
    200  C        -26.8440   27.1460   -6.1040 C.2   449  MET449      0.2593
    201  O        -25.6930   27.4730   -5.7960 O.2   449  MET449     -0.2718
    202  CB       -26.8440   24.6450   -6.4190 C.3   449  MET449      0.0401
    203  CG       -26.9980   23.3150   -5.6900 C.3   449  MET449      0.0596
    204  SD       -26.0050   23.2800   -4.1620 S.3   449  MET449     -0.1393
    205  CE       -24.3010   23.4060   -4.8040 C.3   449  MET449      0.0692
    206  N        -27.6410   27.9010   -6.8530 N.am  450  THR450     -0.1953
    207  CA       -27.3520   29.3010   -7.1280 C.3   450  THR450      0.1897
    208  C        -28.5110   30.1560   -6.6260 C.2   450  THR450      0.2313
    209  O        -29.6590   29.6840   -6.5410 O.2   450  THR450     -0.2863
    210  CB       -27.1480   29.5780   -8.6450 C.3   450  THR450      0.1794
    211  OG1      -28.4000   29.4410   -9.3230 O.3   450  THR450     -0.2208
    212  CG2      -26.1110   28.6120   -9.2590 C.3   450  THR450      0.0378
@<TRIPOS>BOND
     1   117   116    2
     2   116   115    1
     3   115   114    1
     4   115   118    1
     5   129   127    1
     6   118   119    1
     7   121   119    1
     8   127   126    1
     9   105   104    2
    10   119   120    1
    11   122   123    1
    12   104   103    1
    13   123   126    1
    14   123   124    1
    15   126   128    1
    16   111   109   ar
    17   111   112   ar
    18    98    97    2
    19   113   112    1
    20   109   107   ar
    21   112   110   ar
    22   103   102    1
    23   103   106    1
    24    97   102   am
    25    97    96    1
    26   124   125    2
    27   124   130   am
    28   107   106    1
    29   107   108   ar
    30    96    95    1
    31    96    99    1
    32   110   108   ar
    33   141   142    1
    34   130   131    1
    35   142   143    1
    36   100    99    1
    37    99   101    1
    38   131   132    1
    39   131   134    1
    40   132   133    2
    41   143   144    2
    42   143   145   am
    43    57    59   ar
    44    57    56   ar
    45    59    61   ar
    46    93    92    2
    47   154   155    1
    48   145   146    1
    49   136   138   ar
    50   136   135   ar
    51   138   140   ar
    52   134   135    1
    53   135   137   ar
    54   140   139   ar
    55    55    56    1
    56    55    52    1
    57   137   139   ar
    58    92    91    1
    59    56    58   ar
    60   147   146    1
    61   147   148    2
    62    51    52    1
    63    61    60   ar
    64   155   158    1
    65   155   156    1
    66   146   149    1
    67    52    53    1
    68   161   159    1
    69   149   150    1
    70   158   159    1
    71   158   160    1
    72    91    90    1
    73    91    94    1
    74    58    60   ar
    75   156   162   am
    76   156   157    2
    77   162   163    1
    78   167   168    1
    79   164   163    1
    80   164   165    2
    81   150   151    1
    82   153   151   ar
    83    53    54    2
    84   166   163    1
    85   151   152   ar
    86    23    22    2
    87   168   169    1
    88   168   171    1
    89    69    67   am
    90    34    32    1
    91    31    30    2
    92   181   180    1
    93    29    32    1
    94    29    30    1
    95    29    28    1
    96   172   171    1
    97   172   173    1
    98   169   176   am
    99   169   170    2
   100    32    33    1
   101   176   177    1
   102    22    28   am
   103    22    21    1
   104    35    36    1
   105   178   177    1
   106   178   179    2
   107   175   173   ar
   108    67    68    2
   109    67    66    1
   110    85    84    2
   111   173   174   ar
   112   177   180    1
   113    21    24    1
   114    21    20    1
   115    39    36    1
   116    39    40    1
   117   180   182    1
   118    66    63    1
   119    26    27    1
   120    26    25    1
   121    62    63    1
   122    36    37    1
   123    24    25    1
   124    41    40    1
   125    76    74    1
   126    84    83    1
   127    63    64    1
   128    40    42    1
   129    43    37   am
   130    43    44    1
   131    83    82    1
   132    83    86    1
   133    37    38    2
   134    70    64   am
   135    70    71    1
   136    74    71    1
   137    74    75    1
   138    64    65    2
   139    89    87    1
   140    45    44    1
   141    45    46    2
   142    71    72    1
   143    12    11    2
   144    44    47    1
   145    87    86    1
   146    87    88    1
   147    47    48    1
   148   211   210    1
   149     4     3    2
   150   212   210    1
   151    11    10    1
   152    50    48   am
   153   197   195    1
   154    72    73    2
   155    48    49    2
   156   210   207    1
   157    10    13    1
   158    10     9    1
   159   189   187    1
   160     3     9   am
   161     3     2    1
   162     7     6    1
   163    13    14    1
   164   195   194    1
   165     6     8    1
   166     6     5    1
   167    16    14   ar
   168    16    18   ar
   169   207   206    1
   170   207   208    1
   171    14    15   ar
   172     2     5    1
   173     2     1    1
   174   196   194    1
   175    81    78    1
   176    18    19   ar
   177   206   200   am
   178    77    78    1
   179   194   191    1
   180   187   188    1
   181   187   184    1
   182   208   209    2
   183   202   203    1
   184   202   199    1
   185   183   184    1
   186    78    79    1
   187   200   201    2
   188   200   199    1
   189    15    17   ar
   190    19    17   ar
   191   184   185    1
   192   198   199    1
   193   203   204    1
   194   191   190    1
   195   191   192    1
   196   205   204    1
   197    79    80    2
   198   185   186    2
   199   192   193    2
