@<TRIPOS>MOLECULE
tmp/3dlaC00.pdb
 142 135 0 0 0
SMALL
GASTEIGER

@<TRIPOS>ATOM
      1  N         55.1080  103.4090   38.0430 N.3    53  GLU53      -0.1245
      2  CA        55.3700  102.0030   38.3660 C.3    53  GLU53       0.1567
      3  C         54.5240  100.9860   37.5290 C.2    53  GLU53       0.2260
      4  O         53.3050  101.1380   37.3830 O.2    53  GLU53      -0.2867
      5  CB        55.1460  101.8160   39.8530 C.3    53  GLU53       0.0388
      6  CG        55.5780  100.5010   40.4410 C.3    53  GLU53       0.1160
      7  CD        55.4950  100.5790   41.9640 C.2    53  GLU53       0.3649
      8  OE1       55.1040  101.6710   42.4630 O.co2  53  GLU53      -0.2457
      9  OE2       55.8020   99.5800   42.6720 O.co2  53  GLU53      -0.2457
     10  N         49.8620   98.6860   37.7500 N.3    59  TYR59      -0.1241
     11  CA        50.4220   98.4010   39.0900 C.3    59  TYR59       0.1605
     12  C         49.5440   97.3970   39.8310 C.2    59  TYR59       0.2264
     13  O         50.0370   96.4480   40.4340 O.2    59  TYR59      -0.2867
     14  CB        50.5830   99.6690   39.9050 C.3    59  TYR59       0.0534
     15  CG        50.9620   99.4050   41.3200 C.ar   59  TYR59      -0.0201
     16  CD1       52.2420   98.9650   41.6670 C.ar   59  TYR59      -0.0009
     17  CD2       50.0410   99.5900   42.3270 C.ar   59  TYR59      -0.0009
     18  CE1       52.5670   98.7210   43.0200 C.ar   59  TYR59       0.0417
     19  CE2       50.3600   99.3510   43.6210 C.ar   59  TYR59       0.0417
     20  CZ        51.6080   98.9080   43.9690 C.ar   59  TYR59       0.1957
     21  OH        51.8380   98.6960   45.3100 O.3    59  TYR59      -0.2866
     22  N         62.8250   97.1060   41.7470 N.3   122  LYS122     -0.1245
     23  CA        62.4790   97.7860   42.9230 C.3   122  LYS122      0.1561
     24  C         63.2860   97.2210   44.1260 C.2   122  LYS122      0.2260
     25  O         63.4550   96.0520   44.3330 O.2   122  LYS122     -0.2867
     26  CB        60.9400   97.7890   43.1140 C.3   122  LYS122      0.0271
     27  CG        60.4320   98.4480   44.4940 C.3   122  LYS122      0.0035
     28  CD        58.9040   98.4870   44.4300 C.3   122  LYS122      0.0206
     29  CE        58.2660   99.4690   45.3750 C.3   122  LYS122      0.1093
     30  NZ        56.7880   99.4320   45.1340 N.3   122  LYS122     -0.1314
     31  N         56.7330   96.7950   49.4330 N.3   126  PRO126     -0.2116
     32  CA        55.9100   96.9450   50.6550 C.3   126  PRO126      0.1372
     33  C         54.8430   95.8420   50.6080 C.2   126  PRO126      0.2244
     34  O         54.3100   95.5090   49.5170 O.2   126  PRO126     -0.2868
     35  CB        55.3030   98.3360   50.5260 C.3   126  PRO126      0.0268
     36  CG        55.2080   98.5230   48.9090 C.3   126  PRO126      0.0207
     37  CD        56.4660   97.8510   48.4170 C.3   126  PRO126      0.0892
     38  N         52.2550   95.3960   53.3640 N.3   128  TYR128     -0.1227
     39  CA        51.6400   95.8830   54.5970 C.3   128  TYR128      0.1736
     40  C         50.4360   96.7020   54.1710 C.2   128  TYR128      0.2595
     41  O         50.3580   97.1450   52.9820 O.2   128  TYR128     -0.2718
     42  CB        52.6010   96.7030   55.4640 C.3   128  TYR128      0.0548
     43  CG        53.3170   97.8630   54.7880 C.ar  128  TYR128     -0.0200
     44  CD1       52.7040   99.1200   54.6790 C.ar  128  TYR128     -0.0009
     45  CD2       54.6270   97.7160   54.2510 C.ar  128  TYR128     -0.0009
     46  CE1       53.3550  100.1870   54.0790 C.ar  128  TYR128      0.0417
     47  CE2       55.2900   98.7870   53.6800 C.ar  128  TYR128      0.0417
     48  CZ        54.6330  100.0280   53.5940 C.ar  128  TYR128      0.1957
     49  OH        55.2490  101.1250   53.0080 O.3   128  TYR128     -0.2866
     50  N         49.5050   96.8590   55.1290 N.am  129  ARG129     -0.1980
     51  CA        48.1830   97.4490   54.8870 C.3   129  ARG129      0.1597
     52  C         47.7490   97.3130   53.3990 C.2   129  ARG129      0.2287
     53  O         47.5160   96.2240   52.9520 O.2   129  ARG129     -0.2864
     54  CB        48.1170   98.8820   55.4320 C.3   129  ARG129      0.0334
     55  CG        49.4160   99.5740   55.3570 C.3   129  ARG129      0.0492
     56  CD        49.3780  100.9650   55.9230 C.3   129  ARG129      0.2205
     57  NE        49.7700  101.0650   57.3200 N.pl3 129  ARG129     -0.0865
     58  CZ        50.9730  101.4880   57.7510 C.cat 129  ARG129      0.5346
     59  NH1       51.9470  101.8020   56.8600 N.pl3 129  ARG129      0.1354
     60  NH2       51.2130  101.5900   59.1010 N.pl3 129  ARG129      0.1354
     61  N         49.2790   97.1170   50.6580 N.3   131  PHE131     -0.1241
     62  CA        50.2940   96.6060   49.7400 C.3   131  PHE131      0.1605
     63  C         50.6130   95.1310   49.8960 C.2   131  PHE131      0.2264
     64  O         50.7720   94.6540   51.0020 O.2   131  PHE131     -0.2867
     65  CB        51.5600   97.4330   49.8440 C.3   131  PHE131      0.0534
     66  CG        51.3390   98.8830   49.6180 C.ar  131  PHE131     -0.0203
     67  CD1       51.1610   99.3780   48.3280 C.ar  131  PHE131     -0.0042
     68  CD2       51.2880   99.7510   50.6980 C.ar  131  PHE131     -0.0042
     69  CE1       50.9530  100.7220   48.1090 C.ar  131  PHE131     -0.0003
     70  CE2       51.0880  101.1060   50.5050 C.ar  131  PHE131     -0.0003
     71  CZ        50.9280  101.5980   49.1990 C.ar  131  PHE131     -0.0000
     72  N         53.1240   93.3640   47.7080 N.3   133  GLU133     -0.1245
     73  CA        54.0470   93.2000   46.5030 C.3   133  GLU133      0.1567
     74  C         55.0090   91.9820   46.6240 C.2   133  GLU133      0.2260
     75  O         55.4710   91.4270   45.5900 O.2   133  GLU133     -0.2867
     76  CB        54.8580   94.4770   46.2330 C.3   133  GLU133      0.0388
     77  CG        54.0300   95.6880   45.9070 C.3   133  GLU133      0.1160
     78  CD        54.8660   96.9720   45.6830 C.2   133  GLU133      0.3649
     79  OE1       56.0430   96.8550   45.2560 O.co2 133  GLU133     -0.2457
     80  OE2       54.3310   98.0960   45.9370 O.co2 133  GLU133     -0.2457
     81  N         59.0520  103.8630   43.5390 N.3   177  CYS177     -0.1221
     82  CA        58.1650  104.1350   44.6360 C.3   177  CYS177      0.1808
     83  C         58.7450  104.0590   46.0620 C.2   177  CYS177      0.2601
     84  O         59.3150  105.0190   46.5640 O.2   177  CYS177     -0.2717
     85  CB        56.9160  103.2580   44.5120 C.3   177  CYS177      0.0970
     86  SG        55.3860  104.0680   45.1580 S.3   177  CYS177     -0.0800
     87  N         58.5660  102.9180   46.7050 N.am  178  GLU178     -0.1979
     88  CA        58.9020  102.6980   48.1210 C.3   178  GLU178      0.1602
     89  C         60.4040  102.8570   48.3920 C.2   178  GLU178      0.2287
     90  O         60.8280  103.1220   49.5700 O.2   178  GLU178     -0.2864
     91  CB        58.4330  101.2870   48.4950 C.3   178  GLU178      0.0415
     92  CG        58.7630  100.8110   49.8820 C.3   178  GLU178      0.1163
     93  CD        57.8310  101.3460   50.9410 C.2   178  GLU178      0.3649
     94  OE1       56.9830  102.1830   50.5740 O.co2 178  GLU178     -0.2457
     95  OE2       57.9300  100.9360   52.1280 O.co2 178  GLU178     -0.2457
     96  N         61.4920  105.7790   50.3150 N.3   181  PHE181     -0.1298
     97  CA        60.7690  105.9830   51.6320 C.3   181  PHE181      0.1290
     98  C         61.4700  105.3710   52.8680 C.3   181  PHE181      0.2013
     99  O         61.0310  105.5000   54.0710 O.3   181  PHE181     -0.2188
    100  CB        59.3350  105.3530   51.5540 C.3   181  PHE181      0.0480
    101  CG        58.3190  106.1760   50.7750 C.ar  181  PHE181     -0.0206
    102  CD1       58.2260  106.0770   49.3540 C.ar  181  PHE181     -0.0042
    103  CD2       57.4750  107.0600   51.4400 C.ar  181  PHE181     -0.0042
    104  CE1       57.3020  106.8520   48.6160 C.ar  181  PHE181     -0.0003
    105  CE2       56.5540  107.8560   50.7440 C.ar  181  PHE181     -0.0003
    106  CZ        56.4560  107.7490   49.3010 C.ar  181  PHE181     -0.0000
    107  N         51.5200  104.0230   44.0560 N.3   204  SER204     -0.1217
    108  CA        51.1430  104.9660   45.0910 C.3   204  SER204      0.1889
    109  C         49.6370  105.3200   45.0050 C.2   204  SER204      0.2288
    110  O         49.2500  106.4950   44.7600 O.2   204  SER204     -0.2866
    111  CB        52.0540  106.1970   44.9320 C.3   204  SER204      0.2089
    112  OG        51.6980  107.2700   45.7520 O.3   204  SER204     -0.2183
    113  N         48.4990  111.3860   51.5290 N.3   210  ARG210     -0.1245
    114  CA        49.5610  110.7580   50.7330 C.3   210  ARG210      0.1563
    115  C         50.3530  111.7060   49.8210 C.2   210  ARG210      0.2260
    116  O         51.5730  111.5410   49.7030 O.2   210  ARG210     -0.2867
    117  CB        49.0770  109.5350   49.9700 C.3   210  ARG210      0.0307
    118  CG        50.2420  108.7500   49.4010 C.3   210  ARG210      0.0489
    119  CD        49.9180  107.2940   49.1070 C.3   210  ARG210      0.2205
    120  NE        49.9990  106.5490   50.3490 N.pl3 210  ARG210     -0.0865
    121  CZ        49.4190  105.3810   50.5610 C.cat 210  ARG210      0.5346
    122  NH1       48.7030  104.8050   49.6160 N.pl3 210  ARG210      0.1354
    123  NH2       49.5460  104.8000   51.7490 N.pl3 210  ARG210      0.1354
    124  N         52.9110  113.4000   51.9970 N.3   213  ASP213     -0.1225
    125  CA        54.0580  112.4690   52.1530 C.3   213  ASP213      0.1805
    126  C         54.9120  112.3710   50.9150 C.2   213  ASP213      0.2597
    127  O         56.1190  112.5120   50.9930 O.2   213  ASP213     -0.2718
    128  CB        53.5920  111.0630   52.5120 C.3   213  ASP213      0.1424
    129  CG        52.7300  111.0470   53.7230 C.2   213  ASP213      0.3668
    130  OD1       53.0140  111.8760   54.6360 O.co2 213  ASP213     -0.2456
    131  OD2       51.7620  110.2240   53.7680 O.co2 213  ASP213     -0.2456
    132  N         54.2880  112.1160   49.7700 N.am  214  ARG214     -0.1979
    133  CA        55.0320  112.0580   48.5070 C.3   214  ARG214      0.1597
    134  C         55.9530  113.2490   48.3430 C.2   214  ARG214      0.2287
    135  O         57.1330  113.0770   48.0710 O.2   214  ARG214     -0.2864
    136  CB        54.1090  112.0210   47.3090 C.3   214  ARG214      0.0334
    137  CG        53.3210  110.7590   47.1100 C.3   214  ARG214      0.0492
    138  CD        52.4470  111.0590   45.9170 C.3   214  ARG214      0.2205
    139  NE        51.4610  110.0480   45.6090 N.pl3 214  ARG214     -0.0865
    140  CZ        50.3640  110.2870   44.9030 C.cat 214  ARG214      0.5346
    141  NH1       50.0880  111.5190   44.4890 N.pl3 214  ARG214      0.1354
    142  NH2       49.5240  109.2970   44.6370 N.pl3 214  ARG214      0.1354
@<TRIPOS>BOND
     1     4     3    2
     2     3     2    1
     3    10    11    1
     4     1     2    1
     5     2     5    1
     6    11    12    1
     7    11    14    1
     8    12    13    2
     9     5     6    1
    10    14    15    1
    11     6     7    1
    12    15    16   ar
    13    15    17   ar
    14    16    18   ar
    15    22    23    1
    16     7     8   ar
    17     7     9   ar
    18    17    19   ar
    19    23    26    1
    20    23    24    1
    21    18    20   ar
    22    26    27    1
    23    81    82    1
    24    19    20   ar
    25    20    21    1
    26   107   108    1
    27    24    25    2
    28    28    27    1
    29    28    29    1
    30   141   140    1
    31    85    82    1
    32    85    86    1
    33    82    83    1
    34   142   140    1
    35   110   109    2
    36   140   139    2
    37   111   108    1
    38   111   112    1
    39   109   108    1
    40    30    29    1
    41    79    78   ar
    42    75    74    2
    43   139   138    1
    44    78    77    1
    45    78    80   ar
    46    77    76    1
    47   138   137    1
    48    83    84    2
    49    83    87   am
    50    76    73    1
    51    73    74    1
    52    73    72    1
    53    87    88    1
    54   137   136    1
    55   136   133    1
    56   135   134    2
    57    69    67   ar
    58    69    71   ar
    59    88    89    1
    60    88    91    1
    61    67    66   ar
    62   134   133    1
    63    89    90    2
    64    37    36    1
    65    37    31    1
    66    91    92    1
    67   133   132    1
    68   104   106   ar
    69   104   102   ar
    70    36    35    1
    71   119   118    1
    72   119   120    1
    73    71    70   ar
    74   106   105   ar
    75   102   101   ar
    76   118   117    1
    77    31    32    1
    78    34    33    2
    79   122   121    1
    80    66    65    1
    81    66    68   ar
    82   116   115    2
    83    62    65    1
    84    62    63    1
    85    62    61    1
    86   132   126   am
    87   115   114    1
    88    92    93    1
    89    63    64    2
    90   117   114    1
    91    96    97    1
    92   120   121    2
    93    70    68   ar
    94    35    32    1
    95   121   123    1
    96    94    93   ar
    97    33    32    1
    98   114   113    1
    99   105   103   ar
   100   101   103   ar
   101   101   100    1
   102   126   127    2
   103   126   125    1
   104    93    95   ar
   105   100    97    1
   106    97    98    1
   107   124   125    1
   108   125   128    1
   109   128   129    1
   110    98    99    1
   111    53    52    2
   112    41    40    2
   113    49    48    1
   114    38    39    1
   115    52    51    1
   116    48    47   ar
   117    48    46   ar
   118    47    45   ar
   119   129   131   ar
   120   129   130   ar
   121    46    44   ar
   122    40    39    1
   123    40    50   am
   124    45    43   ar
   125    39    42    1
   126    44    43   ar
   127    43    42    1
   128    51    50    1
   129    51    54    1
   130    55    54    1
   131    55    56    1
   132    56    57    1
   133    59    58    1
   134    57    58    2
   135    58    60    1
