@<TRIPOS>MOLECULE
tmp/3dlbB00.pdb
 243 236 0 0 0
SMALL
GASTEIGER

@<TRIPOS>ATOM
      1  N         58.1400   48.3750   59.9370 N.3    39  PRO39      -0.2116
      2  CA        58.9100   47.8780   61.0890 C.3    39  PRO39       0.1372
      3  C         60.2950   47.4040   60.6160 C.2    39  PRO39       0.2244
      4  O         61.2970   47.5360   61.3220 O.2    39  PRO39      -0.2868
      5  CB        58.0400   46.7420   61.6260 C.3    39  PRO39       0.0268
      6  CG        56.6200   47.1820   61.2160 C.3    39  PRO39       0.0207
      7  CD        56.8000   47.7580   59.8470 C.3    39  PRO39       0.0892
      8  N         62.9210   50.2100   59.8920 N.3    42  ALA42      -0.1231
      9  CA        63.4210   50.6220   61.1950 C.3    42  ALA42       0.1694
     10  C         64.5600   49.6770   61.5330 C.2    42  ALA42       0.2591
     11  O         65.5920   50.0910   62.0390 O.2    42  ALA42      -0.2718
     12  CB        62.3310   50.5170   62.2370 C.3    42  ALA42       0.0304
     13  N         64.3730   48.3960   61.2470 N.am   43  GLN43      -0.1979
     14  CA        65.4340   47.4360   61.5170 C.3    43  GLN43       0.1601
     15  C         66.6200   47.7070   60.5630 C.2    43  GLN43       0.2287
     16  O         67.7750   47.6090   60.9510 O.2    43  GLN43      -0.2864
     17  CB        64.9130   46.0220   61.3360 C.3    43  GLN43       0.0394
     18  CG        65.7090   45.0110   62.0680 C.3    43  GLN43       0.0908
     19  CD        65.0940   43.6460   61.9750 C.2    43  GLN43       0.2608
     20  OE1       63.8690   43.5140   61.8280 O.2    43  GLN43      -0.2717
     21  NE2       65.9230   42.6130   62.0780 N.am   43  GLN43      -0.0878
     22  N         68.9990   50.2090   61.8660 N.3    46  ARG46      -0.1231
     23  CA        69.9700   49.7170   62.8420 C.3    46  ARG46       0.1694
     24  C         71.0940   48.9630   62.1290 C.2    46  ARG46       0.2591
     25  O         72.2570   49.0900   62.4800 O.2    46  ARG46      -0.2718
     26  CB        69.3030   48.7680   63.8390 C.3    46  ARG46       0.0321
     27  CG        68.2930   49.4190   64.7460 C.3    46  ARG46       0.0489
     28  CD        68.9890   50.2970   65.7400 C.3    46  ARG46       0.2205
     29  NE        68.0690   51.1930   66.4150 N.pl3  46  ARG46      -0.0865
     30  CZ        68.4370   52.1180   67.2980 C.cat  46  ARG46       0.5346
     31  NH1       69.7240   52.2660   67.6190 N.pl3  46  ARG46       0.1354
     32  NH2       67.5180   52.9050   67.8510 N.pl3  46  ARG46       0.1354
     33  N         70.7390   48.1660   61.1320 N.am   47  ARG47      -0.1980
     34  CA        71.7290   47.4080   60.3870 C.3    47  ARG47       0.1597
     35  C         72.7360   48.3650   59.7640 C.2    47  ARG47       0.2287
     36  O         73.9430   48.1140   59.7820 O.2    47  ARG47      -0.2864
     37  CB        71.0520   46.5880   59.2820 C.3    47  ARG47       0.0334
     38  CG        69.9850   45.6720   59.7980 C.3    47  ARG47       0.0492
     39  CD        70.5550   44.7700   60.8510 C.3    47  ARG47       0.2205
     40  NE        71.2970   43.6850   60.2330 N.pl3  47  ARG47      -0.0865
     41  CZ        72.3140   43.0510   60.7940 C.cat  47  ARG47       0.5346
     42  NH1       72.7390   43.3940   61.9970 N.pl3  47  ARG47       0.1354
     43  NH2       72.8820   42.0520   60.1520 N.pl3  47  ARG47       0.1354
     44  N         69.0110   40.9380   57.5970 N.3    74  LEU74      -0.1231
     45  CA        68.4270   41.1260   58.9230 C.3    74  LEU74       0.1693
     46  C         67.3900   40.0340   59.1350 C.2    74  LEU74       0.2592
     47  O         66.7290   39.6300   58.1870 O.2    74  LEU74      -0.2718
     48  CB        67.8090   42.5300   59.0760 C.3    74  LEU74       0.0284
     49  CG        66.6610   43.1230   58.2520 C.3    74  LEU74       0.0019
     50  CD1       67.0010   43.1780   56.7760 C.3    74  LEU74       0.0001
     51  CD2       65.4310   42.3010   58.4850 C.3    74  LEU74       0.0001
     52  N         67.2790   39.5160   60.3550 N.am   75  ALA75      -0.1966
     53  CA        66.2960   38.4760   60.6150 C.3    75  ALA75       0.1728
     54  C         65.2140   39.1040   61.4680 C.2    75  ALA75       0.2616
     55  O         65.5170   39.8810   62.3710 O.2    75  ALA75      -0.2715
     56  CB        66.9320   37.2810   61.3360 C.3    75  ALA75       0.0334
     57  N         63.9540   38.7940   61.1510 N.am   76  ARG76      -0.1963
     58  CA        62.7950   39.3160   61.8860 C.3    76  ARG76       0.1729
     59  C         61.7390   38.2310   61.9860 C.2    76  ARG76       0.2616
     60  O         61.2550   37.7270   60.9740 O.2    76  ARG76      -0.2715
     61  CB        62.2150   40.5470   61.1840 C.3    76  ARG76       0.0348
     62  CG        61.0310   41.1370   61.9130 C.3    76  ARG76       0.0492
     63  CD        61.0310   42.6660   61.9000 C.3    76  ARG76       0.2205
     64  NE        59.8400   43.2050   62.5610 N.pl3  76  ARG76      -0.0865
     65  CZ        58.5990   42.9740   62.1430 C.cat  76  ARG76       0.5346
     66  NH1       58.3960   42.2240   61.0660 N.pl3  76  ARG76       0.1354
     67  NH2       57.5620   43.4710   62.8090 N.pl3  76  ARG76       0.1354
     68  N         61.3830   37.8810   63.2190 N.am   77  MET77      -0.1963
     69  CA        60.4180   36.8110   63.4830 C.3    77  MET77       0.1736
     70  C         60.8410   35.5140   62.7820 C.2    77  MET77       0.2617
     71  O         60.0020   34.8030   62.2230 O.2    77  MET77      -0.2715
     72  CB        59.0150   37.2030   63.0210 C.3    77  MET77       0.0427
     73  CG        58.3120   38.2260   63.9120 C.3    77  MET77       0.0599
     74  SD        57.9950   37.5980   65.5840 S.3    77  MET77      -0.1393
     75  CE        56.6580   36.4100   65.2970 C.3    77  MET77       0.0692
     76  N         62.1440   35.2220   62.8160 N.am   78  GLY78      -0.1955
     77  CA        62.6670   34.0130   62.2040 C.3    78  GLY78       0.1869
     78  C         62.9270   34.0740   60.7080 C.2    78  GLY78       0.2309
     79  O         63.6020   33.1970   60.1490 O.2    78  GLY78      -0.2863
     80  N         68.1740   59.3520   67.9200 N.3   110  ARG110     -0.1245
     81  CA        69.1250   58.2850   67.6620 C.3   110  ARG110      0.1563
     82  C         70.4950   58.8200   68.0810 C.2   110  ARG110      0.2260
     83  O         71.2840   58.1240   68.7200 O.2   110  ARG110     -0.2867
     84  CB        69.0880   57.9180   66.1640 C.3   110  ARG110      0.0307
     85  CG        70.0040   56.7670   65.7090 C.3   110  ARG110      0.0489
     86  CD        69.7190   55.4560   66.4370 C.3   110  ARG110      0.2205
     87  NE        68.2880   55.1580   66.5350 N.pl3 110  ARG110     -0.0865
     88  CZ        67.5610   54.5170   65.6190 C.cat 110  ARG110      0.5346
     89  NH1       68.1170   54.0730   64.4910 N.pl3 110  ARG110      0.1354
     90  NH2       66.2650   54.3200   65.8430 N.pl3 110  ARG110      0.1354
     91  N         65.1010   38.0070   79.3180 N.3   190  ASN190     -0.1240
     92  CA        66.0330   37.0030   78.8190 C.3   190  ASN190      0.1653
     93  C         67.4630   37.3610   79.2160 C.2   190  ASN190      0.2266
     94  O         67.6750   38.2410   80.0410 O.2   190  ASN190     -0.2867
     95  CB        65.9190   36.8660   77.2930 C.3   190  ASN190      0.1155
     96  CG        64.5080   36.5250   76.8380 C.2   190  ASN190      0.2627
     97  OD1       63.7470   35.9140   77.5770 O.2   190  ASN190     -0.2716
     98  ND2       64.1630   36.9020   75.6140 N.am  190  ASN190     -0.0877
     99  N         70.1490   37.0520   76.5620 N.3   192  TYR192     -0.1227
    100  CA        70.7930   37.4490   75.3140 C.3   192  TYR192      0.1736
    101  C         70.4190   38.8430   74.7900 C.2   192  TYR192      0.2595
    102  O         71.1050   39.3730   73.9160 O.2   192  TYR192     -0.2718
    103  CB        70.5400   36.3880   74.2210 C.3   192  TYR192      0.0548
    104  CG        69.1780   35.7130   74.2850 C.ar  192  TYR192     -0.0200
    105  CD1       68.9090   34.7350   75.2410 C.ar  192  TYR192     -0.0009
    106  CD2       68.1430   36.0950   73.4270 C.ar  192  TYR192     -0.0009
    107  CE1       67.6530   34.1630   75.3470 C.ar  192  TYR192      0.0417
    108  CE2       66.8800   35.5300   73.5290 C.ar  192  TYR192      0.0417
    109  CZ        66.6440   34.5680   74.4950 C.ar  192  TYR192      0.1957
    110  OH        65.3940   34.0230   74.6500 O.3   192  TYR192     -0.2866
    111  N         69.3410   39.4380   75.3040 N.am  193  ASP193     -0.1974
    112  CA        68.9490   40.7850   74.8640 C.3   193  ASP193      0.1709
    113  C         68.1180   41.6060   75.8460 C.2   193  ASP193      0.2293
    114  O         68.2280   41.4240   77.0580 O.2   193  ASP193     -0.2864
    115  CB        68.2560   40.7630   73.4870 C.3   193  ASP193      0.1436
    116  CG        67.3170   39.5900   73.3010 C.2   193  ASP193      0.3671
    117  OD1       66.5380   39.6110   72.3270 O.co2 193  ASP193     -0.2456
    118  OD2       67.3540   38.6410   74.1010 O.co2 193  ASP193     -0.2456
    119  N         64.5090   42.1620   75.4470 N.3   195  ARG195     -0.1245
    120  CA        63.0830   41.8120   75.3880 C.3   195  ARG195      0.1563
    121  C         62.5600   41.1720   76.6820 C.2   195  ARG195      0.2260
    122  O         63.0600   40.1460   77.1300 O.2   195  ARG195     -0.2867
    123  CB        62.8320   40.8640   74.2080 C.3   195  ARG195      0.0307
    124  CG        64.0970   40.2320   73.6330 C.3   195  ARG195      0.0489
    125  CD        64.7730   39.2790   74.6170 C.3   195  ARG195      0.2205
    126  NE        64.9330   39.8670   75.9440 N.pl3 195  ARG195     -0.0865
    127  CZ        66.0200   39.7820   76.7120 C.cat 195  ARG195      0.5346
    128  NH1       67.0970   39.1240   76.3060 N.pl3 195  ARG195      0.1354
    129  NH2       66.0320   40.3620   77.9060 N.pl3 195  ARG195      0.1354
    130  N         59.4750   39.4770   79.2170 N.3   197  TRP197     -0.1241
    131  CA        58.2700   38.6470   79.1770 C.3   197  TRP197      0.1605
    132  C         57.6030   38.5800   80.5440 C.2   197  TRP197      0.2264
    133  O         58.1450   39.0630   81.5330 O.2   197  TRP197     -0.2867
    134  CB        58.5830   37.2050   78.7860 C.3   197  TRP197      0.0550
    135  CG        59.5960   37.0190   77.7270 C.ar  197  TRP197      0.0003
    136  CD1       60.9470   37.1070   77.8650 C.ar  197  TRP197      0.0946
    137  CD2       59.3530   36.6080   76.3800 C.ar  197  TRP197      0.0152
    138  NE1       61.5640   36.7630   76.6890 N.ar  197  TRP197     -0.2442
    139  CE2       60.6070   36.4520   75.7590 C.ar  197  TRP197      0.0810
    140  CE3       58.1950   36.3520   75.6380 C.ar  197  TRP197      0.0012
    141  CZ2       60.7390   36.0470   74.4290 C.ar  197  TRP197      0.0191
    142  CZ3       58.3260   35.9490   74.3160 C.ar  197  TRP197      0.0001
    143  CH2       59.5900   35.8010   73.7260 C.ar  197  TRP197      0.0015
    144  N         59.1260   22.4750   69.9250 N.3   212  LEU212     -0.1231
    145  CA        58.4220   23.6800   69.4880 C.3   212  LEU212      0.1678
    146  C         57.5520   23.2590   68.2960 C.2   212  LEU212      0.2434
    147  O         57.6230   22.1090   67.8580 O.2   212  LEU212     -0.2733
    148  CB        59.4170   24.7660   69.0440 C.3   212  LEU212      0.0284
    149  CG        60.0330   25.7210   70.0730 C.3   212  LEU212      0.0019
    150  CD1       58.9840   26.0430   71.1170 C.3   212  LEU212      0.0001
    151  CD2       61.2540   25.1220   70.7260 C.3   212  LEU212      0.0001
    152  N         56.7170   24.1740   67.7620 N.am  213  PRO213     -0.2718
    153  CA        55.8530   23.8530   66.6220 C.3   213  PRO213      0.1535
    154  C         56.5540   23.1220   65.4870 C.2   213  PRO213      0.2599
    155  O         56.1040   22.0650   65.0510 O.2   213  PRO213     -0.2715
    156  CB        55.3330   25.2160   66.2030 C.3   213  PRO213      0.0310
    157  CG        55.1160   25.8690   67.5230 C.3   213  PRO213      0.0237
    158  CD        56.4110   25.5280   68.2630 C.3   213  PRO213      0.0939
    159  N         57.6520   23.6750   64.9940 N.am  214  GLY214     -0.1955
    160  CA        58.3460   22.9860   63.9250 C.3   214  GLY214      0.1869
    161  C         58.5930   21.5300   64.2910 C.2   214  GLY214      0.2309
    162  O         58.5200   20.6440   63.4450 O.2   214  GLY214     -0.2863
    163  N         63.0510   22.6260   72.4720 N.3   218  LEU218     -0.1245
    164  CA        63.2480   23.9070   73.1260 C.3   218  LEU218      0.1561
    165  C         64.7350   24.1760   73.3550 C.2   218  LEU218      0.2260
    166  O         65.1970   25.3120   73.2110 O.2   218  LEU218     -0.2867
    167  CB        62.4920   23.9290   74.4560 C.3   218  LEU218      0.0270
    168  CG        62.3900   25.2680   75.1870 C.3   218  LEU218      0.0019
    169  CD1       63.7270   25.6220   75.7780 C.3   218  LEU218      0.0001
    170  CD2       61.9090   26.3540   74.2260 C.3   218  LEU218      0.0001
    171  N         66.6960   24.7460   69.9100 N.3   221  TYR221     -0.1227
    172  CA        66.3730   26.0760   69.3930 C.3   221  TYR221      0.1736
    173  C         67.4270   27.0800   69.8420 C.2   221  TYR221      0.2595
    174  O         68.0370   27.7590   69.0080 O.2   221  TYR221     -0.2718
    175  CB        65.0000   26.5320   69.8920 C.3   221  TYR221      0.0548
    176  CG        64.6500   27.9720   69.5630 C.ar  221  TYR221     -0.0200
    177  CD1       64.3320   28.3650   68.2600 C.ar  221  TYR221     -0.0009
    178  CD2       64.6100   28.9410   70.5680 C.ar  221  TYR221     -0.0009
    179  CE1       63.9780   29.6870   67.9680 C.ar  221  TYR221      0.0417
    180  CE2       64.2590   30.2640   70.2950 C.ar  221  TYR221      0.0417
    181  CZ        63.9410   30.6340   68.9950 C.ar  221  TYR221      0.1957
    182  OH        63.5630   31.9420   68.7570 O.3   221  TYR221     -0.2866
    183  N         67.6420   27.1630   71.1570 N.am  222  HIS222     -0.1975
    184  CA        68.6220   28.0910   71.7270 C.3   222  HIS222      0.1656
    185  C         70.0770   27.6310   71.5650 C.2   222  HIS222      0.2291
    186  O         70.9730   28.4420   71.3460 O.2   222  HIS222     -0.2864
    187  CB        68.3560   28.3090   73.2180 C.3   222  HIS222      0.0771
    188  CG        67.0710   29.0130   73.5280 C.ar  222  HIS222      0.0820
    189  ND1       65.9760   28.3580   74.0450 N.ar  222  HIS222     -0.2267
    190  CD2       66.7380   30.3260   73.4850 C.ar  222  HIS222      0.1154
    191  CE1       65.0260   29.2360   74.3150 C.ar  222  HIS222      0.1986
    192  NE2       65.4650   30.4370   73.9860 N.ar  222  HIS222     -0.2212
    193  N         72.1910   28.6220   68.4540 N.3   225  LYS225     -0.1245
    194  CA        72.3260   30.0500   68.2000 C.3   225  LYS225      0.1561
    195  C         73.5720   30.6000   68.8840 C.2   225  LYS225      0.2260
    196  O         74.0620   31.6730   68.5310 O.2   225  LYS225     -0.2867
    197  CB        71.0820   30.8010   68.6860 C.3   225  LYS225      0.0271
    198  CG        69.8520   30.5450   67.8360 C.3   225  LYS225      0.0035
    199  CD        68.7710   31.5750   68.0920 C.3   225  LYS225      0.0206
    200  CE        67.6730   31.4630   67.0610 C.3   225  LYS225      0.1093
    201  NZ        66.7250   32.5870   67.1860 N.3   225  LYS225     -0.1314
    202  N         54.1690   36.3610   76.2780 N.3   241  ASP241     -0.1239
    203  CA        54.4910   37.6820   75.7510 C.3   241  ASP241      0.1674
    204  C         53.6580   38.7700   76.4220 C.2   241  ASP241      0.2266
    205  O         52.4910   38.5490   76.7500 O.2   241  ASP241     -0.2867
    206  CB        54.2550   37.7030   74.2320 C.3   241  ASP241      0.1410
    207  CG        54.5980   39.0480   73.5940 C.2   241  ASP241      0.3668
    208  OD1       53.6660   39.7550   73.1540 O.co2 241  ASP241     -0.2456
    209  OD2       55.8010   39.3980   73.5320 O.co2 241  ASP241     -0.2456
    210  N         48.0590   32.6930   74.9890 N.3   247  LYS247     -0.1245
    211  CA        49.0160   32.0330   74.1000 C.3   247  LYS247      0.1561
    212  C         50.2890   32.0720   74.9340 C.2   247  LYS247      0.2260
    213  O         50.8890   33.1360   75.1250 O.2   247  LYS247     -0.2867
    214  CB        49.2050   32.8370   72.8040 C.3   247  LYS247      0.0271
    215  CG        50.2930   32.3820   71.8470 C.3   247  LYS247      0.0035
    216  CD        49.8290   31.1760   71.0630 C.3   247  LYS247      0.0206
    217  CE        50.7630   30.9690   69.8820 C.3   247  LYS247      0.1093
    218  NZ        51.9930   30.3180   70.2830 N.3   247  LYS247     -0.1314
    219  N         54.2120   30.7370   75.7720 N.3   249  ILE249     -0.1231
    220  CA        55.3370   30.1890   75.0420 C.3   249  ILE249      0.1678
    221  C         56.4550   29.7150   75.9680 C.2   249  ILE249      0.2434
    222  O         56.7680   30.3520   76.9690 O.2   249  ILE249     -0.2733
    223  CB        55.8480   31.2090   73.9920 C.3   249  ILE249      0.0265
    224  CG1       56.0740   32.5770   74.6210 C.3   249  ILE249      0.0019
    225  CG2       54.8180   31.3690   72.8980 C.3   249  ILE249      0.0020
    226  CD1       57.4110   32.7210   75.2560 C.3   249  ILE249      0.0001
    227  N         57.0580   28.5630   75.6480 N.am  250  PRO250     -0.2718
    228  CA        58.1390   27.9620   76.4280 C.3   250  PRO250      0.1535
    229  C         59.4390   28.7300   76.4000 C.2   250  PRO250      0.2598
    230  O         59.7550   29.3810   75.4150 O.2   250  PRO250     -0.2715
    231  CB        58.2850   26.5830   75.7970 C.3   250  PRO250      0.0310
    232  CG        57.9950   26.8590   74.3820 C.3   250  PRO250      0.0237
    233  CD        56.7630   27.7360   74.4670 C.3   250  PRO250      0.0939
    234  N         60.1830   28.6380   77.4980 N.am  251  HIS251     -0.1974
    235  CA        61.4770   29.2970   77.6290 C.3   251  HIS251      0.1656
    236  C         62.3760   28.5620   78.6260 C.2   251  HIS251      0.2291
    237  O         62.0680   27.4440   79.0550 O.2   251  HIS251     -0.2864
    238  CB        61.3000   30.7480   78.0660 C.3   251  HIS251      0.0771
    239  CG        62.3740   31.6570   77.5570 C.ar  251  HIS251      0.0820
    240  ND1       62.1190   32.9460   77.1430 N.ar  251  HIS251     -0.2267
    241  CD2       63.7000   31.4550   77.3630 C.ar  251  HIS251      0.1154
    242  CE1       63.2400   33.4960   76.7100 C.ar  251  HIS251      0.1986
    243  NE2       64.2150   32.6130   76.8340 N.ar  251  HIS251     -0.2212
@<TRIPOS>BOND
     1    50    49    1
     2    44    45    1
     3    47    46    2
     4    49    51    1
     5    49    48    1
     6    45    48    1
     7    45    46    1
     8    46    52   am
     9    37    38    1
    10    37    34    1
    11    35    36    2
    12    35    34    1
    13    38    39    1
    14     7     1    1
    15     7     6    1
    16     8     9    1
    17     1     2    1
    18    79    78    2
    19    43    41    1
    20    40    41    2
    21    40    39    1
    22    52    53    1
    23    34    33    1
    24    15    16    2
    25    15    14    1
    26    53    56    1
    27    53    54    1
    28     3     2    1
    29     3     4    2
    30    78    77    1
    31    41    42    1
    32    60    59    2
    33    66    65    1
    34     2     5    1
    35    33    24   am
    36    57    54   am
    37    57    58    1
    38    61    58    1
    39    61    62    1
    40     9    10    1
    41     9    12    1
    42     6     5    1
    43    13    14    1
    44    13    10   am
    45    17    14    1
    46    17    18    1
    47    54    55    2
    48    10    11    2
    49    20    19    2
    50    22    23    1
    51    58    59    1
    52    63    62    1
    53    63    64    1
    54    19    18    1
    55    19    21   am
    56    59    68   am
    57    24    25    2
    58    24    23    1
    59    65    64    2
    60    65    67    1
    61    77    76    1
    62    71    70    2
    63    70    76   am
    64    70    69    1
    65    23    26    1
    66    72    69    1
    67    72    73    1
    68    68    69    1
    69   162   161    2
    70    26    27    1
    71    73    74    1
    72   160   161    1
    73   160   159    1
    74    89    88    1
    75    27    28    1
    76   159   154   am
    77   155   154    2
    78    75    74    1
    79   154   153    1
    80    88    90    1
    81    88    87    2
    82    85    84    1
    83    85    86    1
    84    28    29    1
    85    84    81    1
    86   156   153    1
    87   156   157    1
    88    29    30    2
    89    86    87    1
    90   153   152    1
    91   200   201    1
    92   200   199    1
    93    30    31    1
    94    30    32    1
    95   157   158    1
    96    81    80    1
    97    81    82    1
    98   152   158    1
    99   152   146   am
   100   198   199    1
   101   198   197    1
   102   147   146    2
   103   179   177   ar
   104   179   181   ar
   105    82    83    2
   106   194   193    1
   107   194   197    1
   108   194   195    1
   109   177   176   ar
   110   146   145    1
   111   196   195    2
   112   182   181    1
   113   181   180   ar
   114   174   173    2
   115   148   145    1
   116   148   149    1
   117   172   173    1
   118   172   175    1
   119   172   171    1
   120   145   144    1
   121   176   175    1
   122   176   178   ar
   123   173   183   am
   124   217   218    1
   125   217   216    1
   126   149   151    1
   127   149   150    1
   128   180   178   ar
   129   216   215    1
   130   183   184    1
   131   186   185    2
   132   185   184    1
   133   184   187    1
   134   215   214    1
   135   117   116   ar
   136   163   164    1
   137   214   211    1
   138   225   223    1
   139   164   165    1
   140   164   167    1
   141   208   207   ar
   142   166   165    2
   143   187   188    1
   144   116   115    1
   145   116   118   ar
   146   106   108   ar
   147   106   104   ar
   148   190   188   ar
   149   190   192   ar
   150   115   112    1
   151   188   189   ar
   152   108   109   ar
   153   209   207   ar
   154   207   206    1
   155   124   123    1
   156   124   125    1
   157   143   142   ar
   158   143   141   ar
   159   102   101    2
   160   192   191   ar
   161   223   224    1
   162   223   220    1
   163   189   191   ar
   164   211   212    1
   165   211   210    1
   166   123   120    1
   167   103   104    1
   168   103   100    1
   169   170   168    1
   170   206   203    1
   171   104   105   ar
   172   142   140   ar
   173   232   233    1
   174   232   231    1
   175   141   139   ar
   176   167   168    1
   177   233   227    1
   178   109   110    1
   179   109   107   ar
   180   125   126    1
   181   224   226    1
   182   101   111   am
   183   101   100    1
   184   112   111    1
   185   112   113    1
   186   212   213    2
   187   220   219    1
   188   220   221    1
   189   168   169    1
   190   105   107   ar
   191   100    99    1
   192   120   119    1
   193   120   121    1
   194   230   229    2
   195    98    96   am
   196   140   137   ar
   197   227   221   am
   198   227   228    1
   199   203   202    1
   200   203   204    1
   201   139   137   ar
   202   139   138   ar
   203   231   228    1
   204   113   114    2
   205   126   127    2
   206   221   222    2
   207   128   127    1
   208   137   135   ar
   209   229   228    1
   210   229   234   am
   211   204   205    2
   212   121   122    2
   213   138   136   ar
   214   242   243   ar
   215   242   240   ar
   216   127   129    1
   217   243   241   ar
   218    96    95    1
   219    96    97    2
   220   240   239   ar
   221    95    92    1
   222   241   239   ar
   223   234   235    1
   224   239   238    1
   225   235   238    1
   226   235   236    1
   227   135   136   ar
   228   135   134    1
   229   236   237    2
   230   134   131    1
   231    92    93    1
   232    92    91    1
   233   131   130    1
   234   131   132    1
   235    93    94    2
   236   132   133    2
