@<TRIPOS>MOLECULE
tmp/3dlcA00.pdb
 198 197 0 0 0
SMALL
GASTEIGER

@<TRIPOS>ATOM
      1  N          2.0960   -0.4820   26.3170 N.3     8  PHE8       -0.1241
      2  CA         0.8910   -0.2140   25.5270 C.3     8  PHE8        0.1605
      3  C         -0.4090   -0.6560   26.1700 C.2     8  PHE8        0.2264
      4  O         -1.4540   -0.7710   25.5210 O.2     8  PHE8       -0.2867
      5  CB         1.0150   -0.7310   24.0730 C.3     8  PHE8        0.0534
      6  CG         2.3970   -0.5420   23.4870 C.ar    8  PHE8       -0.0203
      7  CD1        2.9870    0.7060   23.4810 C.ar    8  PHE8       -0.0042
      8  CD2        3.0690   -1.5980   22.9200 C.ar    8  PHE8       -0.0042
      9  CE1        4.2560    0.9040   22.9460 C.ar    8  PHE8       -0.0003
     10  CE2        4.3530   -1.4180   22.3650 C.ar    8  PHE8       -0.0003
     11  CZ         4.9220   -0.1790   22.3890 C.ar    8  PHE8       -0.0000
     12  N          1.6100   13.2650   24.6150 N.3    19  SER19      -0.1217
     13  CA         1.1350   13.6850   23.3060 C.3    19  SER19       0.1889
     14  C          0.4200   15.0550   23.3640 C.2    19  SER19       0.2288
     15  O          0.4590   15.8560   22.4440 O.2    19  SER19      -0.2866
     16  CB         0.1680   12.6000   22.7870 C.3    19  SER19       0.2089
     17  OG        -0.4480   12.9960   21.5910 O.3    19  SER19      -0.2183
     18  N          4.9210   16.7680   23.7800 N.3    23  PHE23      -0.1241
     19  CA         5.0670   16.4600   22.3610 C.3    23  PHE23       0.1605
     20  C          4.0780   17.2020   21.4640 C.2    23  PHE23       0.2264
     21  O          4.2040   17.1730   20.2450 O.2    23  PHE23      -0.2867
     22  CB         4.8860   14.9600   22.0660 C.3    23  PHE23       0.0534
     23  CG         6.0000   14.0560   22.4710 C.ar   23  PHE23      -0.0203
     24  CD1        7.0610   14.4620   23.2470 C.ar   23  PHE23      -0.0042
     25  CD2        5.9310   12.7390   22.0970 C.ar   23  PHE23      -0.0042
     26  CE1        8.0220   13.5380   23.6490 C.ar   23  PHE23      -0.0003
     27  CE2        6.9040   11.8350   22.4950 C.ar   23  PHE23      -0.0003
     28  CZ         7.9480   12.2210   23.2300 C.ar   23  PHE23      -0.0000
     29  N          3.3790   17.4370   16.3000 N.3    27  TYR27      -0.1241
     30  CA         2.4700   16.7710   15.3680 C.3    27  TYR27       0.1605
     31  C          2.0980   17.6860   14.1700 C.2    27  TYR27       0.2264
     32  O          2.1570   17.2240   13.0390 O.2    27  TYR27      -0.2867
     33  CB         1.2680   16.1720   16.0920 C.3    27  TYR27       0.0534
     34  CG         1.7000   15.1720   17.1300 C.ar   27  TYR27      -0.0201
     35  CD1        2.0760   13.9000   16.7770 C.ar   27  TYR27      -0.0009
     36  CD2        1.7120   15.4960   18.4760 C.ar   27  TYR27      -0.0009
     37  CE1        2.5020   12.9820   17.7250 C.ar   27  TYR27       0.0417
     38  CE2        2.1330   14.5880   19.4350 C.ar   27  TYR27       0.0417
     39  CZ         2.4980   13.3360   19.0650 C.ar   27  TYR27       0.1957
     40  OH         2.8830   12.4420   20.0510 O.3    27  TYR27      -0.2866
     41  N         -2.2220    5.7490    9.2130 N.3    47  ASP47      -0.1225
     42  CA        -1.3020    6.0810   10.3000 C.3    47  ASP47       0.1805
     43  C         -1.1140    4.8010   11.1140 C.2    47  ASP47       0.2598
     44  O         -2.0030    4.3570   11.8330 O.2    47  ASP47      -0.2718
     45  CB        -1.9060    7.2170   11.1220 C.3    47  ASP47       0.1424
     46  CG        -1.0520    7.6600   12.2890 C.2    47  ASP47       0.3668
     47  OD1        0.1140    7.2320   12.3700 O.co2  47  ASP47      -0.2456
     48  OD2       -1.5850    8.4390   13.1160 O.co2  47  ASP47      -0.2456
     49  N          0.0600    4.1890   10.9670 N.am   48  ILE48      -0.1966
     50  CA         0.3630    2.9080   11.6020 C.3    48  ILE48       0.1727
     51  C          0.9720    3.1360   12.9770 C.2    48  ILE48       0.2617
     52  O          1.9470    3.8590   13.1340 O.2    48  ILE48      -0.2715
     53  CB         1.2740    2.0530   10.7250 C.3    48  ILE48       0.0290
     54  CG1        0.5880    1.7880    9.3560 C.3    48  ILE48       0.0022
     55  CG2        1.6300    0.7280   11.4460 C.3    48  ILE48       0.0023
     56  CD1        1.4480    0.9840    8.3920 C.3    48  ILE48       0.0001
     57  N          0.3970    2.4840   13.9750 N.am   49  GLY49      -0.1940
     58  CA         0.7990    2.6770   15.3520 C.3    49  GLY49       0.2014
     59  C          0.3900    4.0640   15.8110 C.2    49  GLY49       0.2640
     60  O          1.1770    4.8050   16.4120 O.2    49  GLY49      -0.2714
     61  N         -0.8720    4.4000   15.5380 N.am   50  SER50      -0.1935
     62  CA        -1.4060    5.7220   15.7320 C.3    50  SER50       0.2055
     63  C         -1.4920    6.1690   17.1980 C.2    50  SER50       0.2644
     64  O         -1.5350    7.3670   17.4770 O.2    50  SER50      -0.2714
     65  CB        -2.7870    5.7920   15.0580 C.3    50  SER50       0.2130
     66  OG        -3.5660    4.6270   15.3350 O.3    50  SER50      -0.2179
     67  N         -1.5400    5.2090   18.1220 N.am   51  GLY51      -0.1940
     68  CA        -1.5110    5.5350   19.5250 C.3    51  GLY51       0.1998
     69  C         -2.6980    6.4050   19.9130 C.2    51  GLY51       0.2480
     70  O         -3.8220    6.1370   19.5210 O.2    51  GLY51      -0.2729
     71  N         -2.4720    7.4740   20.7000 N.am   52  PRO52      -0.2726
     72  CA        -3.5690    8.3610   21.0660 C.3    52  PRO52       0.1402
     73  C         -4.1390    9.1950   19.9110 C.2    52  PRO52       0.2269
     74  O         -5.1210    9.9000   20.1060 O.2    52  PRO52      -0.2865
     75  CB        -2.9480    9.2830   22.1210 C.3    52  PRO52       0.0296
     76  CG        -1.7640    8.5460   22.6520 C.3    52  PRO52       0.0237
     77  CD        -1.2460    7.7790   21.4610 C.3    52  PRO52       0.0939
     78  N         -2.5280   11.5860   17.7850 N.3    54  ALA54      -0.1231
     79  CA        -2.1560   12.9750   17.5540 C.3    54  ALA54       0.1694
     80  C         -1.6400   13.2430   16.1520 C.2    54  ALA54       0.2591
     81  O         -1.8480   14.3340   15.6480 O.2    54  ALA54      -0.2718
     82  CB        -1.1780   13.4790   18.6090 C.3    54  ALA54       0.0304
     83  N         -0.9460   12.2970   15.5270 N.am   55  LEU55      -0.1980
     84  CA        -0.4460   12.5600   14.1630 C.3    55  LEU55       0.1596
     85  C         -1.6170   12.5700   13.1760 C.2    55  LEU55       0.2287
     86  O         -1.6870   13.4040   12.2870 O.2    55  LEU55      -0.2864
     87  CB         0.6370   11.5610   13.7280 C.3    55  LEU55       0.0297
     88  CG         1.2660   11.8130   12.3580 C.3    55  LEU55       0.0022
     89  CD1        1.8790   13.2370   12.2520 C.3    55  LEU55       0.0001
     90  CD2        2.2900   10.7160   12.0800 C.3    55  LEU55       0.0001
     91  N         -4.3870    2.9740   12.6030 N.3    70  LEU70      -0.1231
     92  CA        -4.2370    1.5600   12.9210 C.3    70  LEU70       0.1693
     93  C         -3.3570    1.3780   14.1540 C.2    70  LEU70       0.2592
     94  O         -2.2280    1.8560   14.2010 O.2    70  LEU70      -0.2718
     95  CB        -3.5570    0.8700   11.7290 C.3    70  LEU70       0.0284
     96  CG        -3.2590   -0.6190   11.8910 C.3    70  LEU70       0.0019
     97  CD1       -4.5350   -1.4530   11.8170 C.3    70  LEU70       0.0001
     98  CD2       -2.2870   -1.1280   10.8230 C.3    70  LEU70       0.0001
     99  N         -3.8570    0.6660   15.1430 N.am   71  ASP71      -0.1960
    100  CA        -3.0580    0.3680   16.3330 C.3    71  ASP71       0.1840
    101  C         -3.4790   -0.9770   16.9010 C.2    71  ASP71       0.2622
    102  O         -4.6600   -1.3200   16.8820 O.2    71  ASP71      -0.2715
    103  CB        -3.2100    1.4740   17.3690 C.3    71  ASP71       0.1450
    104  CG        -2.0520    1.4960   18.3580 C.2    71  ASP71       0.3671
    105  OD1       -1.9580    0.5960   19.2110 O.co2  71  ASP71      -0.2456
    106  OD2       -1.2040    2.4240   18.2620 O.co2  71  ASP71      -0.2456
    107  N         -2.5210   -1.7450   17.3920 N.am   72  PHE72      -0.1960
    108  CA        -2.7850   -3.0630   17.9330 C.3    72  PHE72       0.1771
    109  C         -3.1920   -3.0740   19.3820 C.2    72  PHE72       0.2620
    110  O         -3.5430   -4.1410   19.8910 O.2    72  PHE72      -0.2715
    111  CB        -1.6320   -4.0700   17.6270 C.3    72  PHE72       0.0574
    112  CG        -0.4080   -3.9960   18.5170 C.ar   72  PHE72      -0.0200
    113  CD1       -0.1030   -2.9040   19.3160 C.ar   72  PHE72      -0.0042
    114  CD2        0.4680   -5.0640   18.4920 C.ar   72  PHE72      -0.0042
    115  CE1        1.0570   -2.9200   20.0910 C.ar   72  PHE72      -0.0003
    116  CE2        1.6110   -5.0700   19.2450 C.ar   72  PHE72      -0.0003
    117  CZ         1.9160   -3.9970   20.0540 C.ar   72  PHE72      -0.0000
    118  N         -3.2200   -1.9090   20.0320 N.am   73  SER73      -0.1950
    119  CA        -3.5770   -1.8110   21.4380 C.3    73  SER73       0.1924
    120  C         -4.9830   -1.2760   21.6110 C.2    73  SER73       0.2314
    121  O         -5.2780   -0.1170   21.2600 O.2    73  SER73      -0.2863
    122  CB        -2.5920   -0.9150   22.1890 C.3    73  SER73       0.2116
    123  OG        -3.1410   -0.6000   23.4530 O.3    73  SER73      -0.2180
    124  N         -5.8030   -3.3710   14.8700 N.3    97  GLY97      -0.1210
    125  CA        -5.0610   -4.3390   14.0940 C.3    97  GLY97       0.1956
    126  C         -3.5750   -4.1130   14.1860 C.2    97  GLY97       0.2612
    127  O         -3.0880   -3.1690   14.7760 O.2    97  GLY97      -0.2717
    128  N         -2.8560   -5.0220   13.5550 N.am   98  ASP98      -0.1959
    129  CA        -1.4060   -5.1550   13.6400 C.3    98  ASP98       0.1840
    130  C         -0.7630   -4.9580   12.2800 C.2    98  ASP98       0.2622
    131  O         -1.2810   -5.4230   11.2450 O.2    98  ASP98      -0.2715
    132  CB        -1.1200   -6.5980   14.1520 C.3    98  ASP98       0.1450
    133  CG         0.2580   -6.8140   14.6790 C.2    98  ASP98       0.3671
    134  OD1        1.2450   -6.4930   13.9940 O.co2  98  ASP98      -0.2456
    135  OD2        0.3700   -7.3120   15.8270 O.co2  98  ASP98      -0.2456
    136  N          0.3700   -4.2650   12.2740 N.am   99  VAL99      -0.1963
    137  CA         1.1360   -4.0150   11.0590 C.3    99  VAL99       0.1727
    138  C          1.5210   -5.3250   10.3430 C.2    99  VAL99       0.2616
    139  O          1.7720   -5.3340    9.1470 O.2    99  VAL99      -0.2715
    140  CB         2.3930   -3.1560   11.3670 C.3    99  VAL99       0.0290
    141  CG1        3.4260   -3.9150   12.1940 C.3    99  VAL99       0.0023
    142  CG2        2.9830   -2.6090   10.0630 C.3    99  VAL99       0.0023
    143  N          1.5640   -6.4270   11.0870 N.am  100  HIS100     -0.1973
    144  CA         1.9510   -7.7010   10.4810 C.3   100  HIS100      0.1656
    145  C          0.8040   -8.3960    9.7770 C.2   100  HIS100      0.2291
    146  O          1.0150   -9.4390    9.1510 O.2   100  HIS100     -0.2864
    147  CB         2.5400   -8.6600   11.5080 C.3   100  HIS100      0.0771
    148  CG         3.7620   -8.1340   12.1760 C.ar  100  HIS100      0.0820
    149  ND1        3.7000   -7.4190   13.3470 N.ar  100  HIS100     -0.2267
    150  CD2        5.0640   -8.1370   11.8030 C.ar  100  HIS100      0.1154
    151  CE1        4.9290   -7.0660   13.6970 C.ar  100  HIS100      0.1986
    152  NE2        5.7720   -7.4830   12.7760 N.ar  100  HIS100     -0.2212
    153  N          4.7250    7.1830   13.2880 N.3   115  ARG115     -0.1231
    154  CA         5.6890    7.7930   14.1900 C.3   115  ARG115      0.1694
    155  C          5.8480    6.9630   15.4270 C.2   115  ARG115      0.2593
    156  O          4.8720    6.6340   16.1000 O.2   115  ARG115     -0.2718
    157  CB         5.2710    9.2090   14.5970 C.3   115  ARG115      0.0321
    158  CG         6.2780    9.8740   15.4910 C.3   115  ARG115      0.0489
    159  CD         5.7870   11.2160   16.1000 C.3   115  ARG115      0.2205
    160  NE         6.8130   11.7050   16.9920 N.pl3 115  ARG115     -0.0865
    161  CZ         7.0350   11.1970   18.2090 C.cat 115  ARG115      0.5346
    162  NH1        6.1770   10.3460   18.7280 N.pl3 115  ARG115      0.1354
    163  NH2        8.0840   11.5850   18.8970 N.pl3 115  ARG115      0.1354
    164  N          7.0800    6.6790   15.7920 N.am  116  GLY116     -0.1942
    165  CA         7.3450    6.0350   17.0590 C.3   116  GLY116      0.2014
    166  C          6.8830    4.6220   17.2610 C.2   116  GLY116      0.2639
    167  O          6.7700    4.2110   18.4140 O.2   116  GLY116     -0.2714
    168  N          6.4880    3.9320   16.1890 N.am  117  SER117     -0.1949
    169  CA         6.0630    2.5450   16.2300 C.3   117  SER117      0.1924
    170  C          7.0720    1.5390   15.6730 C.2   117  SER117      0.2314
    171  O          7.2470    0.4640   16.2490 O.2   117  SER117     -0.2863
    172  CB         4.7190    2.4820   15.4960 C.3   117  SER117      0.2116
    173  OG         4.0070    1.2920   15.7690 O.3   117  SER117     -0.2180
    174  N          9.5490   -0.6540   17.6580 N.3   120  PHE120     -0.1227
    175  CA         9.0360   -1.7350   18.5070 C.3   120  PHE120      0.1736
    176  C          8.6570   -2.9960   17.7320 C.2   120  PHE120      0.2595
    177  O          8.5080   -4.0580   18.3360 O.2   120  PHE120     -0.2718
    178  CB         7.7860   -1.2740   19.2860 C.3   120  PHE120      0.0547
    179  CG         8.0440   -0.1360   20.2280 C.ar  120  PHE120     -0.0202
    180  CD1        8.7560   -0.3180   21.3980 C.ar  120  PHE120     -0.0042
    181  CD2        7.5490    1.1210   19.9680 C.ar  120  PHE120     -0.0042
    182  CE1        8.9320    0.7780   22.2860 C.ar  120  PHE120     -0.0003
    183  CE2        7.7220    2.1590   20.8300 C.ar  120  PHE120     -0.0003
    184  CZ         8.4480    1.9980   21.9640 C.ar  120  PHE120     -0.0000
    185  N          8.4800   -2.9180   16.4270 N.am  121  TRP121     -0.1976
    186  CA         7.9330   -4.0560   15.6950 C.3   121  TRP121      0.1640
    187  C          8.7980   -5.2780   15.7100 C.2   121  TRP121      0.2290
    188  O          9.9820   -5.1880   15.4770 O.2   121  TRP121     -0.2864
    189  CB         7.6150   -3.7240   14.2200 C.3   121  TRP121      0.0576
    190  CG         6.6710   -2.5960   14.0460 C.ar  121  TRP121      0.0006
    191  CD1        5.7780   -2.0980   14.9660 C.ar  121  TRP121      0.0946
    192  CD2        6.5010   -1.8070   12.8650 C.ar  121  TRP121      0.0152
    193  NE1        5.0850   -1.0410   14.4310 N.ar  121  TRP121     -0.2442
    194  CE2        5.5410   -0.8180   13.1560 C.ar  121  TRP121      0.0810
    195  CE3        7.0750   -1.8210   11.5990 C.ar  121  TRP121      0.0012
    196  CZ2        5.1480    0.1230   12.2140 C.ar  121  TRP121      0.0191
    197  CZ3        6.7050   -0.8620   10.6810 C.ar  121  TRP121      0.0001
    198  CH2        5.7530    0.0960   10.9960 C.ar  121  TRP121      0.0015
@<TRIPOS>BOND
     1    56    54    1
     2   139   138    2
     3   146   145    2
     4    41    42    1
     5    54    53    1
     6   145   144    1
     7   142   140    1
     8    42    43    1
     9    42    45    1
    10   138   137    1
    11   138   143   am
    12   144   143    1
    13   144   147    1
    14   197   198   ar
    15   197   195   ar
    16    53    55    1
    17    53    50    1
    18    98    96    1
    19    49    43   am
    20    49    50    1
    21   198   196   ar
    22   137   140    1
    23   137   136    1
    24    43    44    2
    25    45    46    1
    26   131   130    2
    27   140   141    1
    28   147   148    1
    29   195   192   ar
    30    50    51    1
    31    95    96    1
    32    95    92    1
    33   150   148   ar
    34   150   152   ar
    35    97    96    1
    36    90    88    1
    37   148   149   ar
    38   196   194   ar
    39    89    88    1
    40   136   130   am
    41   130   129    1
    42    86    85    2
    43    46    47   ar
    44    46    48   ar
    45    88    87    1
    46    91    92    1
    47   152   151   ar
    48   192   194   ar
    49   192   190   ar
    50    92    93    1
    51    51    52    2
    52    51    57   am
    53    32    31    2
    54   194   193   ar
    55    85    84    1
    56   153   154    1
    57   149   151   ar
    58   128   129    1
    59   128   126   am
    60   129   132    1
    61    87    84    1
    62    57    58    1
    63   134   133   ar
    64   190   189    1
    65   190   191   ar
    66   125   126    1
    67   125   124    1
    68   132   133    1
    69    93    94    2
    70    93    99   am
    71    84    83    1
    72    31    30    1
    73   126   127    2
    74   154   157    1
    75   154   155    1
    76   189   186    1
    77   193   191   ar
    78   157   158    1
    79   133   135   ar
    80    65    66    1
    81    65    62    1
    82    99   100    1
    83    58    59    1
    84    30    33    1
    85    30    29    1
    86   155   164   am
    87   155   156    2
    88   188   187    2
    89   158   159    1
    90   172   173    1
    91   172   169    1
    92    83    80   am
    93    61    62    1
    94    61    59   am
    95    81    80    2
    96   170   169    1
    97   170   171    2
    98   186   187    1
    99   186   185    1
   100    62    63    1
   101   164   165    1
   102    59    60    2
   103    33    34    1
   104   159   160    1
   105    80    79    1
   106   168   169    1
   107   168   166   am
   108   100   101    1
   109   100   103    1
   110   185   176   am
   111    35    34   ar
   112    35    37   ar
   113   102   101    2
   114   101   107   am
   115   160   161    2
   116   165   166    1
   117    34    36   ar
   118    63    64    2
   119    63    67   am
   120   166   167    2
   121   103   104    1
   122   107   108    1
   123    79    78    1
   124    79    82    1
   125   111   108    1
   126   111   112    1
   127   174   175    1
   128    37    39   ar
   129   176   177    2
   130   176   175    1
   131   108   109    1
   132    67    68    1
   133   161   162    1
   134   161   163    1
   135   106   104   ar
   136   104   105   ar
   137    36    38   ar
   138   114   112   ar
   139   114   116   ar
   140   175   178    1
   141   112   113   ar
   142    39    38   ar
   143    39    40    1
   144   116   117   ar
   145   178   179    1
   146   113   115   ar
   147   109   110    2
   148   109   118   am
   149    70    69    2
   150    68    69    1
   151    73    74    2
   152    73    72    1
   153    69    71   am
   154   181   179   ar
   155   181   183   ar
   156   118   119    1
   157   117   115   ar
   158   179   180   ar
   159    21    20    2
   160    71    72    1
   161    71    77    1
   162   183   184   ar
   163    72    75    1
   164   121   120    2
   165   180   182   ar
   166   119   120    1
   167   119   122    1
   168    77    76    1
   169    20    19    1
   170    17    16    1
   171   184   182   ar
   172    22    19    1
   173    22    23    1
   174    25    23   ar
   175    25    27   ar
   176    75    76    1
   177   122   123    1
   178    19    18    1
   179    10    11   ar
   180    10     8   ar
   181    11     9   ar
   182    15    14    2
   183    23    24   ar
   184    27    28   ar
   185    16    13    1
   186     8     6   ar
   187     9     7   ar
   188    28    26   ar
   189    24    26   ar
   190    13    14    1
   191    13    12    1
   192     7     6   ar
   193     6     5    1
   194     5     2    1
   195     4     3    2
   196     2     3    1
   197     2     1    1
