@<TRIPOS>MOLECULE
tmp/3dleA00.pdb
 168 168 0 0 0
SMALL
GASTEIGER

@<TRIPOS>ATOM
      1  N          2.0520  -31.5900   19.7240 N.3    97  LEU97      -0.1231
      2  CA         1.4050  -32.8810   19.9410 C.3    97  LEU97       0.1693
      3  C          0.7010  -33.3310   18.6820 C.2    97  LEU97       0.2592
      4  O          0.0960  -32.5230   17.9720 O.2    97  LEU97      -0.2718
      5  CB         0.3740  -32.7660   21.0550 C.3    97  LEU97       0.0284
      6  CG         0.8920  -32.2250   22.3860 C.3    97  LEU97       0.0019
      7  CD1       -0.2620  -31.6500   23.2020 C.3    97  LEU97       0.0001
      8  CD2        1.6140  -33.3350   23.1340 C.3    97  LEU97       0.0001
      9  N          0.7770  -34.6220   18.3980 N.am   98  LYS98      -0.1966
     10  CA         0.1080  -35.1420   17.2230 C.3    98  LYS98       0.1728
     11  C         -1.2820  -35.5090   17.6950 C.2    98  LYS98       0.2616
     12  O         -1.4440  -36.0760   18.7750 O.2    98  LYS98      -0.2715
     13  CB         0.8350  -36.3790   16.7020 C.3    98  LYS98       0.0311
     14  CG         2.3610  -36.2580   16.7170 C.3    98  LYS98       0.0038
     15  CD         2.9900  -37.0340   15.5580 C.3    98  LYS98       0.0206
     16  CE         4.5020  -37.2000   15.7150 C.3    98  LYS98       0.1093
     17  NZ         4.8700  -38.1480   16.8170 N.3    98  LYS98      -0.1314
     18  N         -2.2930  -35.1750   16.9080 N.am   99  LYS99      -0.1963
     19  CA        -3.6530  -35.4970   17.3080 C.3    99  LYS99       0.1728
     20  C         -3.7870  -36.9910   17.5690 C.2    99  LYS99       0.2616
     21  O         -3.1690  -37.8090   16.8950 O.2    99  LYS99      -0.2715
     22  CB        -4.6480  -35.0590   16.2320 C.3    99  LYS99       0.0311
     23  CG        -6.1030  -35.2250   16.6630 C.3    99  LYS99       0.0038
     24  CD        -7.0710  -34.3770   15.8460 C.3    99  LYS99       0.0206
     25  CE        -8.4930  -34.5580   16.3650 C.3    99  LYS99       0.1093
     26  NZ        -9.4910  -33.6730   15.6920 N.3    99  LYS99      -0.1314
     27  N         -4.5960  -37.3420   18.5580 N.am  100  LYS100     -0.1963
     28  CA        -4.8140  -38.7390   18.9310 C.3   100  LYS100      0.1728
     29  C         -6.2990  -38.9600   19.2150 C.2   100  LYS100      0.2616
     30  O         -6.9090  -38.1680   19.9310 O.2   100  LYS100     -0.2715
     31  CB        -4.0030  -39.0620   20.1900 C.3   100  LYS100      0.0311
     32  CG        -3.0180  -40.1960   20.0230 C.3   100  LYS100      0.0038
     33  CD        -2.0170  -39.8990   18.9210 C.3   100  LYS100      0.0206
     34  CE        -1.0110  -41.0270   18.7810 C.3   100  LYS100      0.1093
     35  NZ         0.0040  -40.7050   17.7500 N.3   100  LYS100     -0.1314
     36  N         -6.8860  -40.0230   18.6710 N.am  101  LYS101     -0.1963
     37  CA        -8.3040  -40.2740   18.9100 C.3   101  LYS101      0.1728
     38  C         -8.6590  -40.2870   20.3890 C.2   101  LYS101      0.2617
     39  O         -9.7590  -39.8920   20.7800 O.2   101  LYS101     -0.2715
     40  CB        -8.7330  -41.5960   18.2960 C.3   101  LYS101      0.0311
     41  CG        -8.7290  -41.6100   16.7980 C.3   101  LYS101      0.0038
     42  CD        -9.3810  -42.8870   16.3210 C.3   101  LYS101      0.0206
     43  CE        -9.1850  -43.0910   14.8340 C.3   101  LYS101      0.1093
     44  NZ        -9.7530  -44.3980   14.3950 N.3   101  LYS101     -0.1314
     45  N         -7.7250  -40.7390   21.2150 N.am  102  SER102     -0.1936
     46  CA        -7.9710  -40.8000   22.6470 C.3   102  SER102      0.2055
     47  C         -6.7140  -40.6180   23.4830 C.2   102  SER102      0.2642
     48  O         -5.6740  -41.2280   23.2310 O.2   102  SER102     -0.2714
     49  CB        -8.6200  -42.1410   23.0140 C.3   102  SER102      0.2130
     50  OG        -9.8190  -42.3680   22.2940 O.3   102  SER102     -0.2179
     51  N         -6.8270  -39.7660   24.4880 N.am  103  VAL103     -0.1977
     52  CA        -5.7360  -39.5150   25.4100 C.3   103  VAL103      0.1596
     53  C         -6.2970  -39.7710   26.8020 C.2   103  VAL103      0.2287
     54  O         -7.4200  -39.3870   27.1210 O.2   103  VAL103     -0.2864
     55  CB        -5.2270  -38.0650   25.3030 C.3   103  VAL103      0.0276
     56  CG1       -4.2150  -37.7720   26.4060 C.3   103  VAL103      0.0022
     57  CG2       -4.6000  -37.8600   23.9460 C.3   103  VAL103      0.0022
     58  N          1.3980  -43.6170   22.3690 N.3   176  VAL176     -0.1245
     59  CA         2.3280  -42.5880   22.8070 C.3   176  VAL176      0.1561
     60  C          2.1200  -42.3110   24.2850 C.2   176  VAL176      0.2260
     61  O          0.9840  -42.2240   24.7500 O.2   176  VAL176     -0.2867
     62  CB         2.0850  -41.2670   22.0410 C.3   176  VAL176      0.0252
     63  CG1        3.0800  -40.1970   22.4930 C.3   176  VAL176      0.0019
     64  CG2        2.1860  -41.5090   20.5440 C.3   176  VAL176      0.0019
     65  N          3.3740  -39.6680   27.4030 N.3   178  TYR178     -0.1241
     66  CA         4.1350  -38.5110   27.8120 C.3   178  TYR178      0.1605
     67  C          4.2510  -38.4860   29.3430 C.2   178  TYR178      0.2264
     68  O          3.2500  -38.4950   30.0550 O.2   178  TYR178     -0.2867
     69  CB         3.4790  -37.2170   27.3060 C.3   178  TYR178      0.0534
     70  CG         4.2100  -35.9640   27.7640 C.ar  178  TYR178     -0.0201
     71  CD1        3.5560  -34.7340   27.8470 C.ar  178  TYR178     -0.0009
     72  CD2        5.5450  -36.0260   28.1860 C.ar  178  TYR178     -0.0009
     73  CE1        4.2140  -33.6000   28.3520 C.ar  178  TYR178      0.0417
     74  CE2        6.2050  -34.9050   28.6900 C.ar  178  TYR178      0.0417
     75  CZ         5.5360  -33.6990   28.7750 C.ar  178  TYR178      0.1957
     76  OH         6.1910  -32.6110   29.3140 O.3   178  TYR178     -0.2866
     77  N          0.4800  -39.2640   30.3990 N.3   185  TYR185     -0.1227
     78  CA        -0.5700  -39.0010   29.4330 C.3   185  TYR185      0.1736
     79  C         -0.3910  -40.0720   28.3770 C.2   185  TYR185      0.2595
     80  O          0.6470  -40.1530   27.7350 O.2   185  TYR185     -0.2718
     81  CB        -0.4380  -37.5990   28.8300 C.3   185  TYR185      0.0548
     82  CG        -0.7350  -36.5100   29.8340 C.ar  185  TYR185     -0.0200
     83  CD1        0.2910  -35.9080   30.5690 C.ar  185  TYR185     -0.0009
     84  CD2       -2.0530  -36.1400   30.1150 C.ar  185  TYR185     -0.0009
     85  CE1        0.0130  -34.9700   31.5620 C.ar  185  TYR185      0.0417
     86  CE2       -2.3430  -35.2040   31.1090 C.ar  185  TYR185      0.0417
     87  CZ        -1.3080  -34.6230   31.8300 C.ar  185  TYR185      0.1957
     88  OH        -1.5940  -33.7060   32.8240 O.3   185  TYR185     -0.2866
     89  N         -1.4040  -40.9110   28.2260 N.am  186  VAL186     -0.1966
     90  CA        -1.3670  -42.0060   27.2810 C.3   186  VAL186      0.1727
     91  C         -2.3290  -41.7710   26.1250 C.2   186  VAL186      0.2616
     92  O         -3.5440  -41.7090   26.3250 O.2   186  VAL186     -0.2715
     93  CB        -1.7480  -43.2920   27.9860 C.3   186  VAL186      0.0290
     94  CG1       -1.6120  -44.4590   27.0440 C.3   186  VAL186      0.0023
     95  CG2       -0.8850  -43.4680   29.2160 C.3   186  VAL186      0.0023
     96  N         -1.7850  -41.6490   24.9170 N.am  187  GLY187     -0.1955
     97  CA        -2.6190  -41.4130   23.7530 C.3   187  GLY187      0.1869
     98  C         -2.5040  -42.4840   22.6910 C.2   187  GLY187      0.2309
     99  O         -1.5190  -43.2180   22.6290 O.2   187  GLY187     -0.2863
    100  N        -10.7810  -34.7500   30.1630 N.3   222  PRO222     -0.2116
    101  CA       -10.7110  -33.6730   29.1560 C.3   222  PRO222      0.1372
    102  C        -11.7910  -32.5960   29.3220 C.2   222  PRO222      0.2244
    103  O        -12.9100  -32.8800   29.7550 O.2   222  PRO222     -0.2868
    104  CB       -10.8820  -34.4120   27.8270 C.3   222  PRO222      0.0268
    105  CG       -10.4330  -35.8190   28.1350 C.3   222  PRO222      0.0207
    106  CD       -10.9740  -36.0620   29.5150 C.3   222  PRO222      0.0892
    107  N         -7.8760  -31.0400   29.2200 N.3   224  PHE224     -0.1241
    108  CA        -6.8030  -31.1370   30.1950 C.3   224  PHE224      0.1605
    109  C         -6.1290  -29.7840   30.4270 C.2   224  PHE224      0.2264
    110  O         -5.7410  -29.0940   29.4780 O.2   224  PHE224     -0.2867
    111  CB        -5.7720  -32.1600   29.7100 C.3   224  PHE224      0.0534
    112  CG        -6.3250  -33.5550   29.5280 C.ar  224  PHE224     -0.0203
    113  CD1       -6.6330  -34.3530   30.6320 C.ar  224  PHE224     -0.0042
    114  CD2       -6.5030  -34.0850   28.2520 C.ar  224  PHE224     -0.0042
    115  CE1       -7.1050  -35.6610   30.4730 C.ar  224  PHE224     -0.0003
    116  CE2       -6.9750  -35.3920   28.0830 C.ar  224  PHE224     -0.0003
    117  CZ        -7.2740  -36.1800   29.1990 C.ar  224  PHE224     -0.0000
    118  N         -3.0730  -27.9890   31.3390 N.3   226  TRP226     -0.1241
    119  CA        -1.6620  -28.2930   31.4160 C.3   226  TRP226      0.1605
    120  C         -0.8130  -27.0560   31.1820 C.2   226  TRP226      0.2264
    121  O         -1.0010  -26.3380   30.1960 O.2   226  TRP226     -0.2867
    122  CB        -1.3460  -29.3820   30.3940 C.3   226  TRP226      0.0550
    123  CG         0.0810  -29.7570   30.3090 C.ar  226  TRP226      0.0003
    124  CD1        0.8540  -30.2970   31.2950 C.ar  226  TRP226      0.0946
    125  CD2        0.9150  -29.6320   29.1630 C.ar  226  TRP226      0.0152
    126  NE1        2.1240  -30.5200   30.8290 N.ar  226  TRP226     -0.2442
    127  CE2        2.1890  -30.1200   29.5200 C.ar  226  TRP226      0.0810
    128  CE3        0.7110  -29.1530   27.8620 C.ar  226  TRP226      0.0012
    129  CZ2        3.2590  -30.1440   28.6200 C.ar  226  TRP226      0.0191
    130  CZ3        1.7730  -29.1760   26.9680 C.ar  226  TRP226      0.0001
    131  CH2        3.0320  -29.6690   27.3510 C.ar  226  TRP226      0.0015
    132  N         -6.3210  -28.4210   26.5900 N.3   231  LEU231     -0.1231
    133  CA        -6.2260  -29.3100   25.4380 C.3   231  LEU231      0.1693
    134  C         -7.5260  -30.0770   25.2280 C.2   231  LEU231      0.2592
    135  O         -7.9600  -30.8510   26.0750 O.2   231  LEU231     -0.2718
    136  CB        -5.0340  -30.2680   25.6070 C.3   231  LEU231      0.0284
    137  CG        -3.7030  -29.5630   25.9160 C.3   231  LEU231      0.0019
    138  CD1       -2.5470  -30.5070   25.7490 C.3   231  LEU231      0.0001
    139  CD2       -3.5120  -28.3920   24.9730 C.3   231  LEU231      0.0001
    140  N         -8.1480  -29.8250   24.0860 N.am  232  HIS232     -0.1962
    141  CA        -9.4020  -30.4560   23.7260 C.3   232  HIS232      0.1772
    142  C         -9.0960  -31.4230   22.6150 C.2   232  HIS232      0.2462
    143  O         -8.0720  -31.3150   21.9580 O.2   232  HIS232     -0.2730
    144  CB       -10.4170  -29.4200   23.2190 C.3   232  HIS232      0.0785
    145  CG       -10.6290  -28.2670   24.1520 C.ar  232  HIS232      0.0821
    146  ND1      -11.7760  -27.5060   24.1410 N.ar  232  HIS232     -0.2267
    147  CD2       -9.8410  -27.7470   25.1230 C.ar  232  HIS232      0.1154
    148  CE1      -11.6870  -26.5690   25.0680 C.ar  232  HIS232      0.1986
    149  NE2      -10.5230  -26.6940   25.6780 N.ar  232  HIS232     -0.2212
    150  N         -9.9970  -32.3690   22.3750 N.am  233  PRO233     -0.2727
    151  CA        -9.8920  -33.4020   21.3500 C.3   233  PRO233      0.1402
    152  C         -9.4720  -32.9710   19.9560 C.2   233  PRO233      0.2269
    153  O         -8.6670  -33.6400   19.3130 O.2   233  PRO233     -0.2865
    154  CB       -11.2840  -34.0040   21.3510 C.3   233  PRO233      0.0296
    155  CG       -11.6540  -33.9210   22.7830 C.3   233  PRO233      0.0237
    156  CD       -11.2430  -32.5290   23.1400 C.3   233  PRO233      0.0939
    157  N         -3.4790  -29.2250   16.4610 N.3   314  TYR314     -0.1241
    158  CA        -2.4060  -30.1670   16.7470 C.3   314  TYR314      0.1605
    159  C         -1.6050  -30.4850   15.5100 C.2   314  TYR314      0.2264
    160  O         -1.9900  -30.1070   14.4060 O.2   314  TYR314     -0.2867
    161  CB        -2.9970  -31.4320   17.3210 C.3   314  TYR314      0.0534
    162  CG        -3.6780  -31.2120   18.6430 C.ar  314  TYR314     -0.0201
    163  CD1       -2.9320  -30.9180   19.7830 C.ar  314  TYR314     -0.0009
    164  CD2       -5.0520  -31.3770   18.7790 C.ar  314  TYR314     -0.0009
    165  CE1       -3.5340  -30.8080   21.0330 C.ar  314  TYR314      0.0417
    166  CE2       -5.6650  -31.2710   20.0270 C.ar  314  TYR314      0.0417
    167  CZ        -4.8980  -30.9890   21.1470 C.ar  314  TYR314      0.1957
    168  OH        -5.4820  -30.8940   22.3860 O.3   314  TYR314     -0.2866
@<TRIPOS>BOND
     1    44    43    1
     2   160   159    2
     3    43    42    1
     4   159   158    1
     5    15    16    1
     6    15    14    1
     7    26    25    1
     8    16    17    1
     9    24    25    1
    10    24    23    1
    11    22    23    1
    12    22    19    1
    13    42    41    1
    14   157   158    1
    15    13    14    1
    16    13    10    1
    17   158   161    1
    18    41    40    1
    19    21    20    2
    20    18    19    1
    21    18    11   am
    22    10    11    1
    23    10     9    1
    24    19    20    1
    25   161   162    1
    26    20    27   am
    27    11    12    2
    28    35    34    1
    29     4     3    2
    30    40    37    1
    31     9     3   am
    32    27    28    1
    33   162   164   ar
    34   162   163   ar
    35    36    37    1
    36    36    29   am
    37     3     2    1
    38   164   166   ar
    39    34    33    1
    40    37    38    1
    41    33    32    1
    42    28    29    1
    43    28    31    1
    44    29    30    2
    45   153   152    2
    46     1     2    1
    47   163   165   ar
    48     2     5    1
    49   152   151    1
    50    32    31    1
    51   166   167   ar
    52    38    39    2
    53    38    45   am
    54    64    62    1
    55   165   167   ar
    56     5     6    1
    57   167   168    1
    58    45    46    1
    59   151   154    1
    60   151   150    1
    61   154   155    1
    62   143   142    2
    63    62    63    1
    64    62    59    1
    65    50    49    1
    66    58    59    1
    67   150   142   am
    68   150   156    1
    69     6     8    1
    70     6     7    1
    71   142   141    1
    72    99    98    2
    73    46    49    1
    74    46    47    1
    75    98    97    1
    76   155   156    1
    77    59    60    1
    78   144   141    1
    79   144   145    1
    80    48    47    2
    81    47    51   am
    82   141   140    1
    83    97    96    1
    84    57    55    1
    85   140   134   am
    86   146   145   ar
    87   146   148   ar
    88   145   147   ar
    89    60    61    2
    90    51    52    1
    91    96    91   am
    92   139   137    1
    93   148   149   ar
    94   147   149   ar
    95   134   133    1
    96   134   135    2
    97    55    52    1
    98    55    56    1
    99    52    53    1
   100   133   136    1
   101   133   132    1
   102   136   137    1
   103   138   137    1
   104    91    92    2
   105    91    90    1
   106    53    54    2
   107   130   131   ar
   108   130   128   ar
   109    94    93    1
   110    90    93    1
   111    90    89    1
   112    69    70    1
   113    69    66    1
   114   131   129   ar
   115    65    66    1
   116    80    79    2
   117    70    71   ar
   118    70    72   ar
   119    66    67    1
   120   104   105    1
   121   104   101    1
   122    71    73   ar
   123   128   125   ar
   124    93    95    1
   125   116   114   ar
   126   116   117   ar
   127   105   106    1
   128    72    74   ar
   129    89    79   am
   130   114   112   ar
   131    73    75   ar
   132    79    78    1
   133   129   127   ar
   134    74    75   ar
   135    75    76    1
   136    81    78    1
   137    81    82    1
   138   101   102    1
   139   101   100    1
   140   125   127   ar
   141   125   123   ar
   142   117   115   ar
   143   107   108    1
   144   102   103    2
   145    67    68    2
   146    78    77    1
   147   110   109    2
   148   106   100    1
   149   127   126   ar
   150   112   111    1
   151   112   113   ar
   152   111   108    1
   153    82    84   ar
   154    82    83   ar
   155    84    86   ar
   156   108   109    1
   157   121   120    2
   158   123   122    1
   159   123   124   ar
   160   122   119    1
   161   115   113   ar
   162    83    85   ar
   163   126   124   ar
   164    86    87   ar
   165   120   119    1
   166   118   119    1
   167    85    87   ar
   168    87    88    1
