@<TRIPOS>MOLECULE
tmp/3dlpA00.pdb
 93 89 0 0 0
SMALL
GASTEIGER

@<TRIPOS>ATOM
      1  N        -19.0060  -43.0150   -2.7670 N.3   184  PHE184     -0.1241
      2  CA       -19.3890  -43.7560   -3.9570 C.3   184  PHE184      0.1605
      3  C        -19.6820  -45.2090   -3.5710 C.2   184  PHE184      0.2264
      4  O        -20.4680  -45.8850   -4.2300 O.2   184  PHE184     -0.2867
      5  CB       -18.3250  -43.6630   -5.0600 C.3   184  PHE184      0.0534
      6  CG       -17.2290  -44.6990   -4.9470 C.ar  184  PHE184     -0.0203
      7  CD1      -17.3420  -45.9230   -5.6050 C.ar  184  PHE184     -0.0042
      8  CD2      -16.0890  -44.4470   -4.1910 C.ar  184  PHE184     -0.0042
      9  CE1      -16.3420  -46.8800   -5.5120 C.ar  184  PHE184     -0.0003
     10  CE2      -15.0790  -45.3980   -4.0850 C.ar  184  PHE184     -0.0003
     11  CZ       -15.2030  -46.6220   -4.7470 C.ar  184  PHE184     -0.0000
     12  N         -3.1130  -48.7420   -2.0920 N.3   207  HIS207     -0.1226
     13  CA        -3.9970  -48.4240   -3.2120 C.3   207  HIS207      0.1752
     14  C         -5.2180  -47.6340   -2.7190 C.2   207  HIS207      0.2596
     15  O         -5.7190  -47.8820   -1.6210 O.2   207  HIS207     -0.2718
     16  CB        -4.4280  -49.6950   -3.9460 C.3   207  HIS207      0.0759
     17  CG        -5.1000  -49.4290   -5.2560 C.ar  207  HIS207      0.0818
     18  ND1       -6.4450  -49.1370   -5.3590 N.ar  207  HIS207     -0.2268
     19  CD2       -4.6050  -49.3800   -6.5160 C.ar  207  HIS207      0.1154
     20  CE1       -6.7530  -48.9360   -6.6280 C.ar  207  HIS207      0.1986
     21  NE2       -5.6540  -49.0760   -7.3510 N.ar  207  HIS207     -0.2212
     22  N         -5.6930  -46.6920   -3.5340 N.am  208  VAL208     -0.1966
     23  CA        -6.7580  -45.7750   -3.1220 C.3   208  VAL208      0.1727
     24  C         -8.0520  -46.4860   -2.7280 C.2   208  VAL208      0.2616
     25  O         -8.7600  -46.0350   -1.8160 O.2   208  VAL208     -0.2715
     26  CB        -7.0690  -44.6830   -4.1800 C.3   208  VAL208      0.0290
     27  CG1       -5.8810  -43.7470   -4.3480 C.3   208  VAL208      0.0023
     28  CG2       -7.5150  -45.2900   -5.5170 C.3   208  VAL208      0.0023
     29  N         -8.3500  -47.5890   -3.4150 N.am  209  VAL209     -0.1977
     30  CA        -9.5220  -48.3890   -3.1060 C.3   209  VAL209      0.1596
     31  C         -9.3160  -48.9840   -1.7300 C.2   209  VAL209      0.2287
     32  O        -10.2150  -48.9480   -0.8910 O.2   209  VAL209     -0.2864
     33  CB        -9.7590  -49.5320   -4.1330 C.3   209  VAL209      0.0276
     34  CG1      -10.7900  -50.5360   -3.5850 C.3   209  VAL209      0.0022
     35  CG2      -10.2140  -48.9680   -5.4750 C.3   209  VAL209      0.0022
     36  N        -14.2300  -56.0330   -1.0470 N.3   249  PHE249     -0.1241
     37  CA       -13.7610  -55.4320   -2.2790 C.3   249  PHE249      0.1605
     38  C        -12.4440  -56.1250   -2.5930 C.2   249  PHE249      0.2264
     39  O        -11.5310  -56.1350   -1.7570 O.2   249  PHE249     -0.2867
     40  CB       -13.5480  -53.9310   -2.0620 C.3   249  PHE249      0.0534
     41  CG       -13.5300  -53.1200   -3.3220 C.ar  249  PHE249     -0.0203
     42  CD1      -12.8110  -53.5380   -4.4470 C.ar  249  PHE249     -0.0042
     43  CD2      -14.2120  -51.9070   -3.3790 C.ar  249  PHE249     -0.0042
     44  CE1      -12.7940  -52.7690   -5.6080 C.ar  249  PHE249     -0.0003
     45  CE2      -14.1910  -51.1240   -4.5390 C.ar  249  PHE249     -0.0003
     46  CZ       -13.4840  -51.5520   -5.6490 C.ar  249  PHE249     -0.0000
     47  N        -12.8540  -54.2220   -9.5150 N.3   280  ALA280     -0.1245
     48  CA       -12.4900  -53.5710  -10.7730 C.3   280  ALA280      0.1562
     49  C        -12.3310  -54.6380  -11.8620 C.2   280  ALA280      0.2260
     50  O        -11.2460  -55.2050  -12.0430 O.2   280  ALA280     -0.2867
     51  CB       -11.2060  -52.7600  -10.6130 C.3   280  ALA280      0.0290
     52  N        -16.7810  -52.1210  -10.7920 N.3   303  ILE303     -0.1245
     53  CA       -16.3710  -50.7420  -10.5230 C.3   303  ILE303      0.1561
     54  C        -15.1930  -50.3600  -11.4180 C.2   303  ILE303      0.2260
     55  O        -14.1850  -51.0620  -11.4580 O.2   303  ILE303     -0.2867
     56  CB       -15.9480  -50.5620   -9.0280 C.3   303  ILE303      0.0252
     57  CG1      -17.1690  -50.5470   -8.0950 C.3   303  ILE303      0.0019
     58  CG2      -15.0630  -49.3210   -8.8280 C.3   303  ILE303      0.0019
     59  CD1      -18.0540  -49.3180   -8.1820 C.3   303  ILE303      0.0001
     60  N        -12.4350  -47.3130  -11.9800 N.3   305  GLY305     -0.1210
     61  CA       -11.8460  -46.1180  -11.3980 C.3   305  GLY305      0.1956
     62  C        -10.3650  -45.9640  -11.6710 C.2   305  GLY305      0.2613
     63  O         -9.7210  -46.8360  -12.2670 O.2   305  GLY305     -0.2717
     64  N         -9.8250  -44.8320  -11.2330 N.am  306  THR306     -0.1938
     65  CA        -8.4070  -44.5530  -11.3770 C.3   306  THR306      0.2028
     66  C         -7.9480  -43.9170  -10.0780 C.2   306  THR306      0.2642
     67  O         -8.7580  -43.3200   -9.3590 O.2   306  THR306     -0.2714
     68  CB        -8.1340  -43.5740  -12.5360 C.3   306  THR306      0.1808
     69  OG1       -8.6440  -42.2800  -12.1950 O.3   306  THR306     -0.2208
     70  CG2       -8.7900  -44.0440  -13.8360 C.3   306  THR306      0.0379
     71  N         -6.6560  -44.0360   -9.7820 N.am  307  THR307     -0.1950
     72  CA        -6.0510  -43.3340   -8.6540 C.3   307  THR307      0.1897
     73  C         -6.3680  -41.8290   -8.7010 C.2   307  THR307      0.2313
     74  O         -6.6960  -41.2150   -7.6830 O.2   307  THR307     -0.2863
     75  CB        -4.5270  -43.5750   -8.6240 C.3   307  THR307      0.1794
     76  OG1       -4.2700  -44.9080   -8.1620 O.3   307  THR307     -0.2208
     77  CG2       -3.8240  -42.5820   -7.6990 C.3   307  THR307      0.0378
     78  N        -10.6860  -41.4700   -8.6540 N.3   310  MET310     -0.1230
     79  CA       -11.4860  -42.5120   -7.9940 C.3   310  MET310      0.1702
     80  C        -12.5490  -43.1010   -8.9230 C.2   310  MET310      0.2592
     81  O        -12.2020  -43.5930   -9.9920 O.2   310  MET310     -0.2718
     82  CB       -12.0760  -42.0590   -6.6550 C.3   310  MET310      0.0401
     83  CG       -12.3500  -43.2210   -5.7230 C.3   310  MET310      0.0596
     84  SD       -10.8140  -43.8430   -5.0450 S.3   310  MET310     -0.1393
     85  CE       -11.4280  -45.1680   -4.0160 C.3   310  MET310      0.0692
     86  N        -13.8200  -43.0680   -8.5320 N.am  311  ASN311     -0.1974
     87  CA       -14.8410  -43.8280   -9.2620 C.3   311  ASN311      0.1688
     88  C        -15.4680  -43.0820  -10.4340 C.2   311  ASN311      0.2292
     89  O        -16.0030  -41.9910  -10.2650 O.2   311  ASN311     -0.2864
     90  CB       -15.9360  -44.3470   -8.3180 C.3   311  ASN311      0.1181
     91  CG       -16.9990  -45.1550   -9.0490 C.2   311  ASN311      0.2629
     92  OD1      -16.6810  -46.0340   -9.8380 O.2   311  ASN311     -0.2716
     93  ND2      -18.2600  -44.8510   -8.8000 N.am  311  ASN311     -0.0877
@<TRIPOS>BOND
     1    70    68    1
     2    68    69    1
     3    68    65    1
     4    63    62    2
     5    50    49    2
     6    60    61    1
     7    49    48    1
     8    62    61    1
     9    62    64   am
    10    55    54    2
    11    54    53    1
    12    65    64    1
    13    65    66    1
    14    52    53    1
    15    48    51    1
    16    48    47    1
    17    53    56    1
    18    88    89    2
    19    88    87    1
    20    66    71   am
    21    66    67    2
    22    81    80    2
    23    92    91    2
    24    71    72    1
    25    87    86    1
    26    87    90    1
    27    91    93   am
    28    91    90    1
    29    56    58    1
    30    56    57    1
    31    80    86   am
    32    80    79    1
    33    73    72    1
    34    73    74    2
    35    78    79    1
    36    72    75    1
    37    75    76    1
    38    75    77    1
    39    59    57    1
    40    79    82    1
    41    21    20   ar
    42    21    19   ar
    43    82    83    1
    44    20    18   ar
    45    19    17   ar
    46    83    84    1
    47    46    44   ar
    48    46    45   ar
    49    44    42   ar
    50     7     9   ar
    51     7     6   ar
    52    28    26    1
    53     9    11   ar
    54    35    33    1
    55    18    17   ar
    56    17    16    1
    57     5     6    1
    58     5     2    1
    59    84    85    1
    60     6     8   ar
    61    11    10   ar
    62    45    43   ar
    63    42    41   ar
    64    27    26    1
    65     4     3    2
    66     8    10   ar
    67    26    23    1
    68    33    34    1
    69    33    30    1
    70     2     3    1
    71     2     1    1
    72    16    13    1
    73    22    23    1
    74    22    14   am
    75    29    30    1
    76    29    24   am
    77    43    41   ar
    78    41    40    1
    79    13    14    1
    80    13    12    1
    81    23    24    1
    82    30    31    1
    83    24    25    2
    84    14    15    2
    85    38    37    1
    86    38    39    2
    87    37    40    1
    88    37    36    1
    89    31    32    2
