@<TRIPOS>MOLECULE
tmp/3dlzA00.pdb
 163 154 0 0 0
SMALL
GASTEIGER

@<TRIPOS>ATOM
      1  N         17.5810   -7.4600    7.5750 N.3    21  ILE21      -0.1231
      2  CA        18.2990   -6.6810    6.5850 C.3    21  ILE21       0.1692
      3  C         19.4660   -5.8530    7.1520 C.2    21  ILE21       0.2593
      4  O         20.2620   -5.3240    6.3900 O.2    21  ILE21      -0.2718
      5  CB        17.3570   -5.7470    5.7480 C.3    21  ILE21       0.0266
      6  CG1       16.7260   -4.6650    6.6770 C.3    21  ILE21       0.0019
      7  CG2       16.3540   -6.6120    4.9600 C.3    21  ILE21       0.0020
      8  CD1       16.0020   -3.4870    5.9680 C.3    21  ILE21       0.0001
      9  N         19.5860   -5.7250    8.4490 N.am   22  GLY22      -0.1942
     10  CA        20.7370   -4.9930    8.9800 C.3    22  GLY22       0.2014
     11  C         20.8500   -5.0510   10.4790 C.2    22  GLY22       0.2638
     12  O         19.9630   -5.5720   11.1530 O.2    22  GLY22      -0.2714
     13  N         21.9490   -4.5190   10.9960 N.am   23  GLU23      -0.1977
     14  CA        22.2050   -4.5510   12.4270 C.3    23  GLU23       0.1602
     15  C         23.1390   -3.4400   12.8530 C.2    23  GLU23       0.2287
     16  O         23.7230   -2.7740   12.0210 O.2    23  GLU23      -0.2864
     17  CB        22.8300   -5.8990   12.8450 C.3    23  GLU23       0.0415
     18  CG        24.1400   -6.2370   12.0810 C.3    23  GLU23       0.1163
     19  CD        24.8500   -7.4530   12.6180 C.2    23  GLU23       0.3649
     20  OE1       24.2010   -8.5060   12.7930 O.co2  23  GLU23      -0.2457
     21  OE2       26.0670   -7.3480   12.9230 O.co2  23  GLU23      -0.2457
     22  N         23.1860   -1.3630   18.7320 N.3    26  PHE26      -0.1241
     23  CA        21.8320   -0.9880   19.2010 C.3    26  PHE26       0.1605
     24  C         20.8190   -2.1390   19.1580 C.2    26  PHE26       0.2264
     25  O         19.8700   -2.1600   19.9370 O.2    26  PHE26      -0.2867
     26  CB        21.2470    0.1310   18.3170 C.3    26  PHE26       0.0534
     27  CG        20.9700   -0.3040   16.8770 C.ar   26  PHE26      -0.0203
     28  CD1       19.7480   -0.8990   16.5190 C.ar   26  PHE26      -0.0042
     29  CD2       21.9480   -0.1630   15.8980 C.ar   26  PHE26      -0.0042
     30  CE1       19.5040   -1.3390   15.2040 C.ar   26  PHE26      -0.0003
     31  CE2       21.7020   -0.5960   14.5870 C.ar   26  PHE26      -0.0003
     32  CZ        20.4690   -1.1920   14.2430 C.ar   26  PHE26      -0.0000
     33  N         17.5300   -4.9680   12.5730 N.3    29  VAL29      -0.1245
     34  CA        16.6410   -4.3710   11.5940 C.3    29  VAL29       0.1561
     35  C         16.0920   -5.4180   10.6480 C.2    29  VAL29       0.2260
     36  O         16.8280   -6.1830   10.0270 O.2    29  VAL29      -0.2867
     37  CB        17.3150   -3.2120   10.8010 C.3    29  VAL29       0.0252
     38  CG1       16.3000   -2.5890    9.8140 C.3    29  VAL29       0.0019
     39  CG2       17.9250   -2.1390   11.7550 C.3    29  VAL29       0.0019
     40  N         10.7150   -1.2020    7.1420 N.3    40  ALA40      -0.1245
     41  CA        11.9180   -1.5410    7.8950 C.3    40  ALA40       0.1562
     42  C         11.5410   -1.4020    9.3950 C.2    40  ALA40       0.2260
     43  O         10.9390   -0.4020    9.8110 O.2    40  ALA40      -0.2867
     44  CB        13.0870   -0.6040    7.5010 C.3    40  ALA40       0.0290
     45  N         13.1620   -1.5120   13.2280 N.3    42  LYS42      -0.1245
     46  CA        14.3420   -1.4170   14.0570 C.3    42  LYS42       0.1561
     47  C         13.8920   -1.8040   15.4850 C.2    42  LYS42       0.2260
     48  O         12.9680   -1.2070   16.0380 O.2    42  LYS42      -0.2867
     49  CB        14.9040    0.0180   13.9960 C.3    42  LYS42       0.0271
     50  CG        16.2480    0.2410   14.6210 C.3    42  LYS42       0.0035
     51  CD        16.8160    1.6570   14.3660 C.3    42  LYS42       0.0206
     52  CE        18.2600    1.7520   14.9100 C.3    42  LYS42       0.1093
     53  NZ        18.8790    3.1240   14.9870 N.3    42  LYS42      -0.1314
     54  N         14.2390    9.8990    6.5100 N.3    88  ILE88      -0.1245
     55  CA        13.4070    8.6680    6.4110 C.3    88  ILE88       0.1561
     56  C         12.0490    8.9020    7.1040 C.2    88  ILE88       0.2260
     57  O         11.9730    9.5990    8.1060 O.2    88  ILE88      -0.2867
     58  CB        14.1850    7.4180    6.9130 C.3    88  ILE88       0.0252
     59  CG1       13.6350    6.1250    6.2510 C.3    88  ILE88       0.0019
     60  CG2       14.2740    7.3710    8.4630 C.3    88  ILE88       0.0019
     61  CD1       13.7810    6.0940    4.7600 C.3    88  ILE88       0.0001
     62  N          9.8750    2.1110   10.2090 N.3   136  PHE136     -0.1227
     63  CA        10.2680    3.1430    9.2190 C.3   136  PHE136      0.1736
     64  C          9.8340    2.7620    7.8020 C.2   136  PHE136      0.2595
     65  O          9.7280    1.5460    7.4290 O.2   136  PHE136     -0.2718
     66  CB        11.7720    3.3110    9.1600 C.3   136  PHE136      0.0547
     67  CG        12.4010    3.8630   10.4000 C.ar  136  PHE136     -0.0202
     68  CD1       12.3650    5.2310   10.6670 C.ar  136  PHE136     -0.0042
     69  CD2       13.0610    3.0380   11.2730 C.ar  136  PHE136     -0.0042
     70  CE1       12.9920    5.7700   11.7840 C.ar  136  PHE136     -0.0003
     71  CE2       13.6740    3.5610   12.4390 C.ar  136  PHE136     -0.0003
     72  CZ        13.6280    4.9480   12.6790 C.ar  136  PHE136     -0.0000
     73  N          9.6110    3.8200    7.0040 N.am  137  GLU137     -0.1965
     74  CA         9.6860    3.7390    5.5530 C.3   137  GLU137      0.1733
     75  C         10.9160    2.9130    5.1310 C.2   137  GLU137      0.2616
     76  O         12.0250    2.9990    5.7330 O.2   137  GLU137     -0.2715
     77  CB         9.7550    5.1660    4.9690 C.3   137  GLU137      0.0429
     78  CG         9.9480    5.2310    3.4880 C.3   137  GLU137      0.1163
     79  CD        10.3140    6.6490    3.0130 C.2   137  GLU137      0.3649
     80  OE1       10.3840    6.8740    1.7950 O.co2 137  GLU137     -0.2457
     81  OE2       10.4920    7.5250    3.8580 O.co2 137  GLU137     -0.2457
     82  N         10.7230    2.0300    4.1600 N.am  138  PHE138     -0.1960
     83  CA        11.8510    1.2810    3.6120 C.3   138  PHE138      0.1771
     84  C         12.6210    2.2180    2.6430 C.2   138  PHE138      0.2620
     85  O         12.0730    2.7350    1.6650 O.2   138  PHE138     -0.2715
     86  CB        11.4260   -0.0480    2.9570 C.3   138  PHE138      0.0574
     87  CG        12.5520   -0.7590    2.2880 C.ar  138  PHE138     -0.0200
     88  CD1       13.4480   -1.5130    3.0230 C.ar  138  PHE138     -0.0042
     89  CD2       12.7640   -0.6220    0.9270 C.ar  138  PHE138     -0.0042
     90  CE1       14.5400   -2.1340    2.4100 C.ar  138  PHE138     -0.0003
     91  CE2       13.8590   -1.2520    0.3160 C.ar  138  PHE138     -0.0003
     92  CZ        14.7260   -2.0060    1.0640 C.ar  138  PHE138     -0.0000
     93  N         13.8890    2.4610    2.9590 N.am  139  GLY139     -0.1940
     94  CA        14.6970    3.4470    2.2620 C.3   139  GLY139      0.2014
     95  C         15.6560    2.9720    1.1810 C.2   139  GLY139      0.2639
     96  O         16.2630    3.7880    0.5090 O.2   139  GLY139     -0.2714
     97  N         15.7220    1.6730    0.9840 N.am  140  GLY140     -0.1954
     98  CA        16.5540    1.1030   -0.0740 C.3   140  GLY140      0.1869
     99  C         17.7340    0.4080    0.5490 C.2   140  GLY140      0.2309
    100  O         17.6430   -0.0740    1.6670 O.2   140  GLY140     -0.2863
    101  N         21.7830    0.2520    1.7030 N.3   142  ASP142     -0.1239
    102  CA        22.8630    1.1310    2.1930 C.3   142  ASP142      0.1674
    103  C         24.0640    1.2490    1.2290 C.2   142  ASP142      0.2266
    104  O         24.3650    0.3490    0.4120 O.2   142  ASP142     -0.2867
    105  CB        23.3360    0.8460    3.6330 C.3   142  ASP142      0.1410
    106  CG        24.0250   -0.4980    3.7910 C.2   142  ASP142      0.3668
    107  OD1       23.3600   -1.4050    4.3120 O.co2 142  ASP142     -0.2456
    108  OD2       25.1930   -0.6740    3.4010 O.co2 142  ASP142     -0.2456
    109  N         26.7330   -1.5180    1.1900 N.3   145  GLN145     -0.1245
    110  CA        26.2960   -2.6440    0.3360 C.3   145  GLN145      0.1566
    111  C         26.2780   -2.3080   -1.1710 C.2   145  GLN145      0.2260
    112  O         26.3380   -3.2030   -2.0170 O.2   145  GLN145     -0.2867
    113  CB        24.9470   -3.1750    0.8140 C.3   145  GLN145      0.0367
    114  CG        25.1050   -4.0830    2.0460 C.3   145  GLN145      0.0905
    115  CD        23.8310   -4.8430    2.3820 C.2   145  GLN145      0.2608
    116  OE1       23.6430   -5.9860    1.9430 O.2   145  GLN145     -0.2717
    117  NE2       22.9450   -4.2150    3.1340 N.am  145  GLN145     -0.0878
    118  N         27.9500    7.3570    9.0690 N.3   182  HIS182     -0.1241
    119  CA        28.7090    6.3170    8.3980 C.3   182  HIS182      0.1621
    120  C         27.9470    5.8190    7.1690 C.2   182  HIS182      0.2264
    121  O         26.7350    6.0700    6.9970 O.2   182  HIS182     -0.2867
    122  CB        29.1600    5.1980    9.3450 C.3   182  HIS182      0.0745
    123  CG        28.0640    4.4270    9.9840 C.ar  182  HIS182      0.0817
    124  ND1       27.3520    3.4580    9.3060 N.ar  182  HIS182     -0.2268
    125  CD2       27.5870    4.4310   11.2560 C.ar  182  HIS182      0.1154
    126  CE1       26.4600    2.9290   10.1290 C.ar  182  HIS182      0.1986
    127  NE2       26.5850    3.4960   11.3180 N.ar  182  HIS182     -0.2212
    128  N         26.8370    2.9480    6.3230 N.3   184  GLY184     -0.1210
    129  CA        25.6620    2.1310    6.6230 C.3   184  GLY184      0.1956
    130  C         24.3710    2.9510    6.7480 C.2   184  GLY184      0.2611
    131  O         23.2480    2.4040    6.7040 O.2   184  GLY184     -0.2717
    132  N         24.5220    4.2670    6.9230 N.am  185  ASN185     -0.1974
    133  CA        23.3950    5.1830    7.2260 C.3   185  ASN185      0.1688
    134  C         22.9390    6.0610    6.0700 C.2   185  ASN185      0.2292
    135  O         22.1410    7.0050    6.2400 O.2   185  ASN185     -0.2864
    136  CB        23.7170    6.0410    8.4610 C.3   185  ASN185      0.1181
    137  CG        23.7820    5.2110    9.7210 C.2   185  ASN185      0.2629
    138  OD1       23.0910    4.1800    9.8400 O.2   185  ASN185     -0.2716
    139  ND2       24.5490    5.6710   10.6890 N.am  185  ASN185     -0.0877
    140  N         21.0820    5.5010    2.5830 N.3   187  LEU187     -0.1245
    141  CA        20.2920    4.5080    1.8110 C.3   187  LEU187      0.1561
    142  C         20.0270    5.0040    0.4060 C.2   187  LEU187      0.2260
    143  O         19.7100    6.2000    0.1940 O.2   187  LEU187     -0.2867
    144  CB        18.9500    4.1790    2.4970 C.3   187  LEU187      0.0270
    145  CG        19.0100    3.6970    3.9570 C.3   187  LEU187      0.0019
    146  CD1       17.5870    3.2880    4.4680 C.3   187  LEU187      0.0001
    147  CD2       20.0190    2.5740    4.0920 C.3   187  LEU187      0.0001
    148  N         19.5520    7.8950    7.4000 N.3   217  ILE217     -0.1231
    149  CA        18.9530    7.2550    8.5560 C.3   217  ILE217      0.1692
    150  C         19.8470    7.3040    9.7960 C.2   217  ILE217      0.2592
    151  O         20.9920    7.7660    9.7640 O.2   217  ILE217     -0.2718
    152  CB        18.6160    5.7570    8.2500 C.3   217  ILE217      0.0266
    153  CG1       19.8840    4.9580    7.9510 C.3   217  ILE217      0.0019
    154  CG2       17.5830    5.6150    7.0790 C.3   217  ILE217      0.0020
    155  CD1       19.7100    3.4540    8.1450 C.3   217  ILE217      0.0001
    156  N         19.2550    6.8310   10.8940 N.am  218  ASP218     -0.1974
    157  CA        19.9130    6.5260   12.1800 C.3   218  ASP218      0.1709
    158  C         20.3250    7.7390   13.0090 C.2   218  ASP218      0.2293
    159  O         21.4390    8.2140   12.9140 O.2   218  ASP218     -0.2864
    160  CB        21.1320    5.6120   11.9820 C.3   218  ASP218      0.1436
    161  CG        21.6610    5.0780   13.2880 C.2   218  ASP218      0.3671
    162  OD1       20.9990    5.2850   14.3490 O.co2 218  ASP218     -0.2456
    163  OD2       22.7830    4.5250   13.2510 O.co2 218  ASP218     -0.2456
@<TRIPOS>BOND
     1   112   111    2
     2   111   110    1
     3    98    99    1
     4    98    97    1
     5   143   142    2
     6    91    89   ar
     7    91    92   ar
     8   110   113    1
     9   110   109    1
    10   142   141    1
    11   104   103    2
    12    96    95    2
    13    99   100    2
    14   113   114    1
    15    89    87   ar
    16    97    95   am
    17    92    90   ar
    18    95    94    1
    19   103   102    1
    20    85    84    2
    21   101   102    1
    22    80    79   ar
    23   141   144    1
    24   141   140    1
    25   116   115    2
    26   114   115    1
    27   102   105    1
    28    94    93    1
    29    87    86    1
    30    87    88   ar
    31   115   117   am
    32    90    88   ar
    33   144   145    1
    34    84    93   am
    35    84    83    1
    36    86    83    1
    37    79    78    1
    38    79    81   ar
    39   108   106   ar
    40    78    77    1
    41    83    82    1
    42   105   106    1
    43   106   107   ar
    44   145   147    1
    45   145   146    1
    46    82    75   am
    47    61    59    1
    48     7     5    1
    49    77    74    1
    50    75    74    1
    51    75    76    2
    52    74    73    1
    53     5     2    1
    54     5     6    1
    55     8     6    1
    56   134   135    2
    57   134   133    1
    58    59    58    1
    59   128   129    1
    60     4     3    2
    61    55    54    1
    62    55    58    1
    63    55    56    1
    64     2     3    1
    65     2     1    1
    66   129   130    1
    67   131   130    2
    68   130   132   am
    69    58    60    1
    70   132   133    1
    71   121   120    2
    72    73    64   am
    73   154   152    1
    74    56    57    2
    75    40    41    1
    76     3     9   am
    77   120   119    1
    78   133   136    1
    79   148   149    1
    80    65    64    2
    81    44    41    1
    82    64    63    1
    83    41    42    1
    84   153   155    1
    85   153   152    1
    86   152   149    1
    87   119   118    1
    88   119   122    1
    89     9    10    1
    90   136   137    1
    91   149   150    1
    92    10    11    1
    93    66    63    1
    94    66    67    1
    95    63    62    1
    96   124   123   ar
    97   124   126   ar
    98   122   123    1
    99    42    43    2
   100   137   138    2
   101   137   139   am
   102   151   150    2
   103   150   156   am
   104    38    37    1
   105   123   125   ar
   106    36    35    2
   107   126   127   ar
   108    67    68   ar
   109    67    69   ar
   110    11    13   am
   111    11    12    2
   112    35    34    1
   113    68    70   ar
   114    37    34    1
   115    37    39    1
   116   156   157    1
   117    13    14    1
   118   125   127   ar
   119    69    71   ar
   120    34    33    1
   121    70    72   ar
   122   160   157    1
   123   160   161    1
   124    16    15    2
   125    18    19    1
   126    18    17    1
   127   157   158    1
   128    14    17    1
   129    14    15    1
   130    71    72   ar
   131    19    20   ar
   132    19    21   ar
   133   159   158    2
   134    45    46    1
   135   163   161   ar
   136   161   162   ar
   137    49    46    1
   138    49    50    1
   139    46    47    1
   140    32    31   ar
   141    32    30   ar
   142    51    50    1
   143    51    52    1
   144    31    29   ar
   145    52    53    1
   146    30    28   ar
   147    47    48    2
   148    29    27   ar
   149    28    27   ar
   150    27    26    1
   151    26    23    1
   152    22    23    1
   153    24    23    1
   154    24    25    2
