@<TRIPOS>MOLECULE
tmp/3dm0A00.pdb
 200 197 0 0 0
SMALL
GASTEIGER

@<TRIPOS>ATOM
      1  N         58.6910   13.9000   63.2850 N.3    12  ASN12      -0.1240
      2  CA        59.9920   14.2430   62.7140 C.3    12  ASN12       0.1653
      3  C         61.2030   13.5600   63.3540 C.2    12  ASN12       0.2266
      4  O         61.2270   13.2890   64.5580 O.2    12  ASN12      -0.2867
      5  CB        60.1810   15.7610   62.7390 C.3    12  ASN12       0.1155
      6  CG        61.2150   16.2310   61.7390 C.2    12  ASN12       0.2627
      7  OD1       61.1170   15.9350   60.5470 O.2    12  ASN12      -0.2716
      8  ND2       62.2140   16.9670   62.2170 N.am   12  ASN12      -0.0877
      9  N         64.0130   14.5790   64.3460 N.3    14  ASP14      -0.1225
     10  CA        64.7150   15.2780   65.4200 C.3    14  ASP14       0.1805
     11  C         63.9780   15.2010   66.7510 C.2    14  ASP14       0.2597
     12  O         64.4520   15.7280   67.7580 O.2    14  ASP14      -0.2718
     13  CB        64.9340   16.7500   65.0500 C.3    14  ASP14       0.1424
     14  CG        63.6480   17.4490   64.6510 C.2    14  ASP14       0.3668
     15  OD1       62.5710   16.9630   65.0390 O.co2  14  ASP14      -0.2456
     16  OD2       63.7100   18.4850   63.9530 O.co2  14  ASP14      -0.2456
     17  N         62.8190   14.5500   66.7610 N.am   15  LYS15      -0.1979
     18  CA        62.0420   14.4340   67.9940 C.3    15  LYS15       0.1596
     19  C         62.1760   13.0590   68.6390 C.2    15  LYS15       0.2287
     20  O         62.5860   12.0980   67.9880 O.2    15  LYS15      -0.2864
     21  CB        60.5640   14.7350   67.7280 C.3    15  LYS15       0.0298
     22  CG        60.1670   16.1790   67.9990 C.3    15  LYS15       0.0038
     23  CD        60.7150   17.1120   66.9510 C.3    15  LYS15       0.0206
     24  CE        60.2670   18.5490   67.1600 C.3    15  LYS15       0.1093
     25  NZ        60.6580   19.3480   65.9850 N.3    15  LYS15      -0.1314
     26  N         56.2940   16.2820   56.3690 N.3    44  GLU44      -0.1245
     27  CA        55.3600   17.3980   56.2380 C.3    44  GLU44       0.1567
     28  C         54.8930   17.6040   54.7970 C.2    44  GLU44       0.2260
     29  O         53.8130   18.1420   54.5640 O.2    44  GLU44      -0.2867
     30  CB        55.9860   18.7030   56.7420 C.3    44  GLU44       0.0388
     31  CG        56.9430   19.3630   55.7530 C.3    44  GLU44       0.1160
     32  CD        58.3380   18.7630   55.7710 C.2    44  GLU44       0.3649
     33  OE1       58.4660   17.5340   55.9510 O.co2  44  GLU44      -0.2457
     34  OE2       59.3080   19.5280   55.5910 O.co2  44  GLU44      -0.2457
     35  N         53.9380   17.7730   63.8540 N.3    62  TRP62      -0.1227
     36  CA        54.6950   18.8410   63.2220 C.3    62  TRP62       0.1737
     37  C         54.4030   20.1120   63.9810 C.2    62  TRP62       0.2595
     38  O         53.5010   20.1370   64.8090 O.2    62  TRP62      -0.2718
     39  CB        54.3070   19.0100   61.7420 C.3    62  TRP62       0.0564
     40  CG        55.3990   19.7140   60.9690 C.ar   62  TRP62       0.0003
     41  CD1       55.4820   21.0560   60.6720 C.ar   62  TRP62       0.0946
     42  CD2       56.6320   19.1320   60.5210 C.ar   62  TRP62       0.0152
     43  NE1       56.6930   21.3350   60.0780 N.ar   62  TRP62      -0.2442
     44  CE2       57.4150   20.1750   59.9750 C.ar   62  TRP62       0.0810
     45  CE3       57.1510   17.8300   60.5360 C.ar   62  TRP62       0.0012
     46  CZ2       58.6910   19.9550   59.4500 C.ar   62  TRP62       0.0191
     47  CZ3       58.4250   17.6120   60.0120 C.ar   62  TRP62       0.0001
     48  CH2       59.1780   18.6710   59.4780 C.ar   62  TRP62       0.0015
     49  N         55.1860   21.1560   63.7390 N.am   63  ALA63      -0.1980
     50  CA        54.9250   22.4190   64.3970 C.3    63  ALA63       0.1597
     51  C         53.5580   22.8900   63.8380 C.2    63  ALA63       0.2287
     52  O         53.1800   22.5680   62.7080 O.2    63  ALA63      -0.2864
     53  CB        56.0200   23.4030   64.0780 C.3    63  ALA63       0.0319
     54  N         52.4270   25.6410   62.5670 N.3    65  ASP65      -0.1225
     55  CA        52.4360   26.4710   61.3650 C.3    65  ASP65       0.1805
     56  C         52.0190   25.7990   60.0650 C.2    65  ASP65       0.2597
     57  O         51.6200   26.4860   59.1300 O.2    65  ASP65      -0.2718
     58  CB        53.8180   27.1060   61.1670 C.3    65  ASP65       0.1424
     59  CG        54.8820   26.0890   60.7790 C.2    65  ASP65       0.3668
     60  OD1       55.0640   25.0930   61.5220 O.co2  65  ASP65      -0.2456
     61  OD2       55.5320   26.2900   59.7300 O.co2  65  ASP65      -0.2456
     62  N         52.0970   24.4740   59.9920 N.am   66  ARG66      -0.1979
     63  CA        51.7340   23.7860   58.7560 C.3    66  ARG66       0.1597
     64  C         50.3260   23.1880   58.7170 C.2    66  ARG66       0.2287
     65  O         49.8590   22.7500   57.6590 O.2    66  ARG66      -0.2864
     66  CB        52.7550   22.6880   58.4480 C.3    66  ARG66       0.0334
     67  CG        53.1000   22.6160   56.9690 C.3    66  ARG66       0.0492
     68  CD        54.3080   21.7550   56.7200 C.3    66  ARG66       0.2205
     69  NE        54.9900   22.0930   55.4680 N.pl3  66  ARG66      -0.0865
     70  CZ        54.4410   22.0440   54.2540 C.cat  66  ARG66       0.5346
     71  NH1       53.1770   21.6760   54.0910 N.pl3  66  ARG66       0.1354
     72  NH2       55.1770   22.3410   53.1910 N.pl3  66  ARG66       0.1354
     73  N         58.0490   25.2610   71.2430 N.3   111  GLU111     -0.1245
     74  CA        59.4460   25.2310   70.8280 C.3   111  GLU111      0.1567
     75  C         59.9590   26.6280   70.4730 C.2   111  GLU111      0.2260
     76  O         59.2750   27.3950   69.7970 O.2   111  GLU111     -0.2867
     77  CB        59.6000   24.3500   69.6020 C.3   111  GLU111      0.0388
     78  CG        59.1870   22.9250   69.8040 C.3   111  GLU111      0.1160
     79  CD        59.0850   22.2050   68.4940 C.2   111  GLU111      0.3649
     80  OE1       59.5620   22.7710   67.4880 O.co2 111  GLU111     -0.2457
     81  OE2       58.5330   21.0850   68.4630 O.co2 111  GLU111     -0.2457
     82  N         72.5890   25.6350   61.6040 N.3   150  ASN150     -0.1240
     83  CA        72.0180   25.2760   60.3110 C.3   150  ASN150      0.1653
     84  C         71.5670   26.4390   59.4310 C.2   150  ASN150      0.2266
     85  O         70.4890   26.9800   59.6210 O.2   150  ASN150     -0.2867
     86  CB        70.8550   24.3080   60.5200 C.3   150  ASN150      0.1155
     87  CG        70.2980   23.7830   59.2180 C.2   150  ASN150      0.2627
     88  OD1       70.9850   23.7820   58.1900 O.2   150  ASN150     -0.2716
     89  ND2       69.0580   23.3120   59.2530 N.am  150  ASN150     -0.0877
     90  N         68.0600   25.8980   56.6660 N.3   153  GLU153     -0.1231
     91  CA        66.6440   26.1050   56.9770 C.3   153  GLU153      0.1684
     92  C         66.3910   27.5220   57.4840 C.2   153  GLU153      0.2434
     93  O         67.0430   27.9760   58.4320 O.2   153  GLU153     -0.2733
     94  CB        66.1810   25.0980   58.0270 C.3   153  GLU153      0.0402
     95  CG        65.9510   23.7010   57.4960 C.3   153  GLU153      0.1161
     96  CD        64.8550   23.6360   56.4480 C.2   153  GLU153      0.3649
     97  OE1       63.9310   24.4810   56.4740 O.co2 153  GLU153     -0.2457
     98  OE2       64.9080   22.7200   55.6050 O.co2 153  GLU153     -0.2457
     99  N         65.4360   28.2400   56.8610 N.am  154  PRO154     -0.2718
    100  CA        65.1220   29.6170   57.2760 C.3   154  PRO154      0.1535
    101  C         64.7300   29.7430   58.7600 C.2   154  PRO154      0.2599
    102  O         64.9740   30.7720   59.4050 O.2   154  PRO154     -0.2715
    103  CB        64.0210   30.0460   56.2880 C.3   154  PRO154      0.0310
    104  CG        63.4060   28.7540   55.8470 C.3   154  PRO154      0.0237
    105  CD        64.5920   27.8170   55.7300 C.3   154  PRO154      0.0939
    106  N         64.1440   28.6840   59.3040 N.am  155  TYR155     -0.1960
    107  CA        63.7720   28.6530   60.7210 C.3   155  TYR155      0.1771
    108  C         64.9350   29.1510   61.5990 C.2   155  TYR155      0.2619
    109  O         64.7320   29.9180   62.5420 O.2   155  TYR155     -0.2715
    110  CB        63.4310   27.2150   61.1150 C.3   155  TYR155      0.0574
    111  CG        62.9490   27.0370   62.5320 C.ar  155  TYR155     -0.0198
    112  CD1       61.6910   27.4880   62.9190 C.ar  155  TYR155     -0.0009
    113  CD2       63.7510   26.4030   63.4870 C.ar  155  TYR155     -0.0009
    114  CE1       61.2400   27.3180   64.2110 C.ar  155  TYR155      0.0417
    115  CE2       63.3050   26.2250   64.7920 C.ar  155  TYR155      0.0417
    116  CZ        62.0480   26.6870   65.1440 C.ar  155  TYR155      0.1957
    117  OH        61.5910   26.5230   66.4260 O.3   155  TYR155     -0.2866
    118  N         66.1570   28.7210   61.2770 N.am  156  PHE156     -0.1974
    119  CA        67.3250   29.1070   62.0570 C.3   156  PHE156      0.1639
    120  C         67.8730   30.4980   61.7550 C.2   156  PHE156      0.2290
    121  O         68.5040   31.1130   62.6130 O.2   156  PHE156     -0.2864
    122  CB        68.4510   28.0810   61.8740 C.3   156  PHE156      0.0560
    123  CG        68.0930   26.7060   62.3340 C.ar  156  PHE156     -0.0200
    124  CD1       67.3880   25.8390   61.5050 C.ar  156  PHE156     -0.0042
    125  CD2       68.4100   26.2860   63.6310 C.ar  156  PHE156     -0.0042
    126  CE1       67.0020   24.5770   61.9660 C.ar  156  PHE156     -0.0003
    127  CE2       68.0240   25.0270   64.0980 C.ar  156  PHE156     -0.0003
    128  CZ        67.3230   24.1740   63.2740 C.ar  156  PHE156     -0.0000
    129  N         72.4590   21.1730   59.4140 N.3   210  TYR210     -0.1241
    130  CA        72.1560   20.7550   60.7800 C.3   210  TYR210      0.1605
    131  C         73.1750   19.8220   61.4320 C.2   210  TYR210      0.2264
    132  O         73.6420   20.1050   62.5340 O.2   210  TYR210     -0.2867
    133  CB        70.7560   20.1150   60.8490 C.3   210  TYR210      0.0534
    134  CG        70.2300   19.9050   62.2670 C.ar  210  TYR210     -0.0201
    135  CD1       70.6570   18.8300   63.0510 C.ar  210  TYR210     -0.0009
    136  CD2       69.3240   20.8050   62.8300 C.ar  210  TYR210     -0.0009
    137  CE1       70.1930   18.6600   64.3630 C.ar  210  TYR210      0.0417
    138  CE2       68.8570   20.6480   64.1320 C.ar  210  TYR210      0.0417
    139  CZ        69.2880   19.5780   64.8960 C.ar  210  TYR210      0.1957
    140  OH        68.7980   19.4260   66.1810 O.3   210  TYR210     -0.2866
    141  N         65.0640   20.0220   71.5730 N.3   230  TRP230     -0.1241
    142  CA        65.3170   18.6690   71.1150 C.3   230  TRP230      0.1605
    143  C         66.8010   18.3570   70.9430 C.2   230  TRP230      0.2264
    144  O         67.1760   17.1980   70.7840 O.2   230  TRP230     -0.2867
    145  CB        64.5870   18.4400   69.7920 C.3   230  TRP230      0.0550
    146  CG        64.9230   19.4730   68.7470 C.ar  230  TRP230      0.0003
    147  CD1       66.0200   19.4900   67.9300 C.ar  230  TRP230      0.0946
    148  CD2       64.1840   20.6640   68.4480 C.ar  230  TRP230      0.0152
    149  NE1       66.0100   20.6190   67.1440 N.ar  230  TRP230     -0.2442
    150  CE2       64.8950   21.3570   67.4410 C.ar  230  TRP230      0.0810
    151  CE3       62.9920   21.2150   68.9350 C.ar  230  TRP230      0.0012
    152  CZ2       64.4520   22.5760   66.9120 C.ar  230  TRP230      0.0191
    153  CZ3       62.5510   22.4250   68.4120 C.ar  230  TRP230      0.0001
    154  CH2       63.2810   23.0920   67.4090 C.ar  230  TRP230      0.0015
    155  N         57.3040   27.7600   67.3600 N.3   260  GLY260     -0.1225
    156  CA        56.4590   26.6730   66.9080 C.3   260  GLY260      0.1811
    157  C         55.8140   25.9620   68.0790 C.2   260  GLY260      0.2280
    158  O         56.3140   25.9890   69.2080 O.2   260  GLY260     -0.2866
    159  N         54.6110   22.2580   68.7210 N.3   262  LEU262     -0.1245
    160  CA        54.5300   20.8790   68.2430 C.3   262  LEU262      0.1561
    161  C         53.0960   20.4190   68.4250 C.2   262  LEU262      0.2260
    162  O         52.5390   20.5490   69.5050 O.2   262  LEU262     -0.2867
    163  CB        55.4650   19.9730   69.0410 C.3   262  LEU262      0.0270
    164  CG        55.3620   18.5180   68.6020 C.3   262  LEU262      0.0019
    165  CD1       55.7320   18.4190   67.1250 C.3   262  LEU262      0.0001
    166  CD2       56.2500   17.6650   69.4560 C.3   262  LEU262      0.0001
    167  N         54.0870   31.2810   65.3880 N.3   330  MET330     -0.1245
    168  CA        53.8650   31.2310   63.9650 C.3   330  MET330      0.1570
    169  C         52.4000   31.2170   63.5660 C.2   330  MET330      0.2261
    170  O         51.5460   30.7060   64.2920 O.2   330  MET330     -0.2867
    171  CB        54.5140   29.9850   63.3930 C.3   330  MET330      0.0387
    172  CG        56.0230   29.9600   63.4540 C.3   330  MET330      0.0595
    173  SD        56.5890   28.5120   62.5620 S.3   330  MET330     -0.1393
    174  CE        56.4590   27.2710   63.8460 C.3   330  MET330      0.0692
    175  N         57.9160   30.1270   53.8970 N.3   340  TRP340     -0.1227
    176  CA        59.1160   29.3610   54.2380 C.3   340  TRP340      0.1737
    177  C         59.9500   29.0170   53.0050 C.2   340  TRP340      0.2595
    178  O         61.1710   29.1930   52.9970 O.2   340  TRP340     -0.2718
    179  CB        58.7430   28.0630   54.9720 C.3   340  TRP340      0.0564
    180  CG        58.3780   28.2620   56.4030 C.ar  340  TRP340      0.0003
    181  CD1       57.2640   27.7930   57.0380 C.ar  340  TRP340      0.0946
    182  CD2       59.1260   28.9920   57.3880 C.ar  340  TRP340      0.0152
    183  NE1       57.2700   28.1920   58.3600 N.ar  340  TRP340     -0.2442
    184  CE2       58.4000   28.9280   58.5980 C.ar  340  TRP340      0.0810
    185  CE3       60.3380   29.6900   57.3650 C.ar  340  TRP340      0.0012
    186  CZ2       58.8440   29.5340   59.7680 C.ar  340  TRP340      0.0191
    187  CZ3       60.7830   30.2970   58.5370 C.ar  340  TRP340      0.0001
    188  CH2       60.0330   30.2140   59.7210 C.ar  340  TRP340      0.0015
    189  N         59.2880   28.5110   51.9700 N.am  341  TYR341     -0.1976
    190  CA        59.9750   28.1590   50.7330 C.3   341  TYR341      0.1639
    191  C         60.6090   29.4080   50.1340 C.2   341  TYR341      0.2290
    192  O         61.7320   29.3690   49.6330 O.2   341  TYR341     -0.2864
    193  CB        58.9880   27.5410   49.7430 C.3   341  TYR341      0.0560
    194  CG        58.5560   26.1260   50.0910 C.ar  341  TYR341     -0.0198
    195  CD1       57.2090   25.7600   50.0600 C.ar  341  TYR341     -0.0009
    196  CD2       59.4980   25.1410   50.4040 C.ar  341  TYR341     -0.0009
    197  CE1       56.8050   24.4480   50.3270 C.ar  341  TYR341      0.0417
    198  CE2       59.1060   23.8230   50.6720 C.ar  341  TYR341      0.0417
    199  CZ        57.7580   23.4870   50.6310 C.ar  341  TYR341      0.1957
    200  OH        57.3610   22.1960   50.8930 O.3   341  TYR341     -0.2866
@<TRIPOS>BOND
     1   192   191    2
     2   193   194    1
     3   193   190    1
     4   195   194   ar
     5   195   197   ar
     6   194   196   ar
     7   191   190    1
     8   197   199   ar
     9   196   198   ar
    10   199   198   ar
    11   199   200    1
    12   190   189    1
    13   189   177   am
    14   178   177    2
    15   177   176    1
    16    72    70    1
    17   175   176    1
    18    71    70    1
    19   176   179    1
    20    70    69    2
    21    29    28    2
    22    28    27    1
    23   179   180    1
    24    69    68    1
    25    34    32   ar
    26    98    96   ar
    27   105   104    1
    28   105    99    1
    29    31    32    1
    30    31    30    1
    31    32    33   ar
    32   104   103    1
    33    27    26    1
    34    27    30    1
    35   103   100    1
    36   180   181   ar
    37   180   182   ar
    38    96    97   ar
    39    96    95    1
    40    90    91    1
    41    68    67    1
    42    99   100    1
    43    99    92   am
    44    67    66    1
    45    91    92    1
    46    91    94    1
    47   181   183   ar
    48   100   101    1
    49   185   182   ar
    50   185   187   ar
    51   182   184   ar
    52    92    93    2
    53    95    94    1
    54    65    64    2
    55    88    87    2
    56   183   184   ar
    57    66    63    1
    58   187   188   ar
    59   184   186   ar
    60    64    63    1
    61    63    62    1
    62   101   106   am
    63   101   102    2
    64    57    56    2
    65    87    89   am
    66    87    86    1
    67   106   107    1
    68   129   130    1
    69    84    85    2
    70    84    83    1
    71    46    48   ar
    72    46    44   ar
    73    48    47   ar
    74   188   186   ar
    75    61    59   ar
    76    44    43   ar
    77    44    42   ar
    78    62    56   am
    79    47    45   ar
    80    56    55    1
    81    43    41   ar
    82    83    86    1
    83    83    82    1
    84    42    45   ar
    85    42    40   ar
    86     7     6    2
    87    41    40   ar
    88   107   110    1
    89   107   108    1
    90    59    58    1
    91    59    60   ar
    92   130   133    1
    93   130   131    1
    94   133   134    1
    95    40    39    1
    96   110   111    1
    97    58    55    1
    98   118   108   am
    99   118   119    1
   100    55    54    1
   101   131   132    2
   102   124   126   ar
   103   124   123   ar
   104   108   109    2
   105     6     8   am
   106     6     5    1
   107    39    36    1
   108   120   119    1
   109   120   121    2
   110   122   119    1
   111   122   123    1
   112   126   128   ar
   113   134   136   ar
   114   134   135   ar
   115   123   125   ar
   116   111   112   ar
   117   111   113   ar
   118   173   172    1
   119   173   174    1
   120    52    51    2
   121     2     5    1
   122     2     1    1
   123     2     3    1
   124   136   138   ar
   125   112   114   ar
   126   135   137   ar
   127    36    35    1
   128    36    37    1
   129   128   127   ar
   130     3     4    2
   131   171   172    1
   132   171   168    1
   133   113   115   ar
   134   169   168    1
   135   169   170    2
   136   125   127   ar
   137    49    37   am
   138    49    50    1
   139    51    50    1
   140    16    14   ar
   141   168   167    1
   142    37    38    2
   143    53    50    1
   144   138   139   ar
   145   114   116   ar
   146     9    10    1
   147   137   139   ar
   148    14    15   ar
   149    14    13    1
   150   115   116   ar
   151   139   140    1
   152    13    10    1
   153   116   117    1
   154    10    11    1
   155    25    24    1
   156    11    17   am
   157    11    12    2
   158    17    18    1
   159   156   155    1
   160   156   157    1
   161   152   154   ar
   162   152   150   ar
   163    23    24    1
   164    23    22    1
   165   165   164    1
   166   149   150   ar
   167   149   147   ar
   168   154   153   ar
   169   150   148   ar
   170    80    79   ar
   171    21    18    1
   172    21    22    1
   173   147   146   ar
   174    20    19    2
   175    18    19    1
   176   157   158    2
   177   160   161    1
   178   160   159    1
   179   160   163    1
   180   153   151   ar
   181   161   162    2
   182   148   146   ar
   183   148   151   ar
   184    81    79   ar
   185    79    78    1
   186   164   163    1
   187   164   166    1
   188   146   145    1
   189    77    78    1
   190    77    74    1
   191   145   142    1
   192    76    75    2
   193    75    74    1
   194   144   143    2
   195    74    73    1
   196   143   142    1
   197   142   141    1
