@<TRIPOS>MOLECULE
tmp/3dm1G00.pdb
 129 124 0 0 0
SMALL
GASTEIGER

@<TRIPOS>ATOM
      1  N        -47.1160   26.4570  -24.4760 N.3     1  GLU1       -0.1231
      2  CA       -46.6810   26.1610  -23.0700 C.3     1  GLU1        0.1699
      3  C        -47.8230   25.5760  -22.2720 C.2     1  GLU1        0.2592
      4  O        -48.9710   26.0500  -22.3290 O.2     1  GLU1       -0.2718
      5  CB       -46.1070   27.4040  -22.3550 C.3     1  GLU1        0.0402
      6  CG       -44.6760   27.7810  -22.8340 C.3     1  GLU1        0.1161
      7  CD       -43.9390   28.7150  -21.8680 C.2     1  GLU1        0.3649
      8  OE1      -44.3120   29.9100  -21.8440 O.co2   1  GLU1       -0.2457
      9  OE2      -42.9900   28.2510  -21.1370 O.co2   1  GLU1       -0.2457
     10  N        -47.5060   24.5450  -21.5020 N.am    2  PHE2       -0.1962
     11  CA       -48.4880   23.9590  -20.6170 C.3     2  PHE2        0.1771
     12  C        -47.8760   23.8880  -19.2430 C.2     2  PHE2        0.2619
     13  O        -46.6770   23.7700  -19.1180 O.2     2  PHE2       -0.2715
     14  CB       -48.8140   22.5560  -21.1130 C.3     2  PHE2        0.0574
     15  CG       -49.5380   22.5360  -22.4110 C.ar    2  PHE2       -0.0200
     16  CD1      -48.8390   22.5590  -23.6170 C.ar    2  PHE2       -0.0042
     17  CD2      -50.9360   22.5110  -22.4360 C.ar    2  PHE2       -0.0042
     18  CE1      -49.5280   22.5540  -24.8460 C.ar    2  PHE2       -0.0003
     19  CE2      -51.6300   22.5160  -23.6650 C.ar    2  PHE2       -0.0003
     20  CZ       -50.9290   22.5360  -24.8610 C.ar    2  PHE2       -0.0000
     21  N        -48.7250   23.9270  -18.2260 N.am    3  VAL3       -0.1963
     22  CA       -48.3520   23.8130  -16.8380 C.3     3  VAL3        0.1727
     23  C        -47.6750   22.4440  -16.6310 C.2     3  VAL3        0.2616
     24  O        -48.1610   21.4210  -17.1090 O.2     3  VAL3       -0.2715
     25  CB       -49.5950   24.0760  -15.9780 C.3     3  VAL3        0.0290
     26  CG1      -49.3350   23.8840  -14.5030 C.3     3  VAL3        0.0023
     27  CG2      -50.0370   25.4870  -16.1880 C.3     3  VAL3        0.0023
     28  N        -46.4880   22.4390  -16.0290 N.am    4  VAL4       -0.1977
     29  CA       -45.7680   21.1860  -15.7650 C.3     4  VAL4        0.1596
     30  C        -46.1650   20.7310  -14.3770 C.2     4  VAL4        0.2287
     31  O        -46.2480   21.5530  -13.4500 O.2     4  VAL4       -0.2864
     32  CB       -44.2130   21.3440  -15.8720 C.3     4  VAL4        0.0276
     33  CG1      -43.4680   20.0620  -15.4420 C.3     4  VAL4        0.0022
     34  CG2      -43.8420   21.6720  -17.2860 C.3     4  VAL4        0.0022
     35  N        -41.7800   14.6810  -18.8940 N.3    21  LEU21      -0.1245
     36  CA       -42.6620   15.5060  -18.0880 C.3    21  LEU21       0.1561
     37  C        -44.0130   14.9400  -17.9550 C.2    21  LEU21       0.2260
     38  O        -44.5640   14.3740  -18.8970 O.2    21  LEU21      -0.2867
     39  CB       -42.8270   16.9420  -18.6530 C.3    21  LEU21       0.0270
     40  CG       -41.5350   17.7280  -18.9640 C.3    21  LEU21       0.0019
     41  CD1      -41.8590   19.0100  -19.6480 C.3    21  LEU21       0.0001
     42  CD2      -40.6940   17.9800  -17.6970 C.3    21  LEU21       0.0001
     43  N        -47.6560   16.3970  -17.3440 N.3    23  TRP23      -0.1241
     44  CA       -48.3380   17.6230  -17.6160 C.3    23  TRP23       0.1605
     45  C        -49.5740   17.6940  -16.7060 C.2    23  TRP23       0.2264
     46  O        -50.1560   16.6430  -16.4150 O.2    23  TRP23      -0.2867
     47  CB       -48.7280   17.6870  -19.1260 C.3    23  TRP23       0.0550
     48  CG       -47.5500   17.6480  -20.0880 C.ar   23  TRP23       0.0003
     49  CD1      -47.0910   16.5670  -20.7900 C.ar   23  TRP23       0.0946
     50  CD2      -46.6760   18.7490  -20.4330 C.ar   23  TRP23       0.0152
     51  NE1      -45.9690   16.9150  -21.5540 N.ar   23  TRP23      -0.2442
     52  CE2      -45.7110   18.2540  -21.3610 C.ar   23  TRP23       0.0810
     53  CE3      -46.6240   20.1080  -20.0640 C.ar   23  TRP23       0.0012
     54  CZ2      -44.7110   19.0780  -21.9080 C.ar   23  TRP23       0.0191
     55  CZ3      -45.6080   20.9290  -20.6150 C.ar   23  TRP23       0.0001
     56  CH2      -44.6870   20.4120  -21.5230 C.ar   23  TRP23       0.0015
     57  N        -53.4410   16.2650  -17.3880 N.3    26  PHE26      -0.1241
     58  CA       -53.2560   15.3020  -18.4320 C.3    26  PHE26       0.1605
     59  C        -52.9230   13.9930  -17.7210 C.2    26  PHE26       0.2264
     60  O        -52.7020   13.9770  -16.5170 O.2    26  PHE26      -0.2867
     61  CB       -52.2120   15.7690  -19.4540 C.3    26  PHE26       0.0534
     62  CG       -52.7030   16.9130  -20.3370 C.ar   26  PHE26      -0.0203
     63  CD1      -53.3380   16.6590  -21.5430 C.ar   26  PHE26      -0.0042
     64  CD2      -52.5610   18.2420  -19.9380 C.ar   26  PHE26      -0.0042
     65  CE1      -53.8270   17.7210  -22.3400 C.ar   26  PHE26      -0.0003
     66  CE2      -53.0310   19.2970  -20.7140 C.ar   26  PHE26      -0.0003
     67  CZ       -53.6740   19.0420  -21.9210 C.ar   26  PHE26      -0.0000
     68  N        -50.1210   10.7820  -21.9590 N.3    30  ASP30      -0.1239
     69  CA       -49.7950   12.1140  -22.4850 C.3    30  ASP30       0.1674
     70  C        -48.4150   12.6850  -22.0680 C.2    30  ASP30       0.2266
     71  O        -48.0870   13.7820  -22.4680 O.2    30  ASP30      -0.2867
     72  CB       -50.8870   13.1200  -22.0540 C.3    30  ASP30       0.1410
     73  CG       -52.2680   12.8620  -22.7290 C.2    30  ASP30       0.3668
     74  OD1      -52.2880   12.6600  -23.9650 O.co2  30  ASP30      -0.2456
     75  OD2      -53.3310   12.9110  -22.0380 O.co2  30  ASP30      -0.2456
     76  N        -44.4060   13.3890  -22.0910 N.3    32  THR32      -0.1218
     77  CA       -43.5640   13.6380  -23.2740 C.3    32  THR32       0.1862
     78  C        -42.1230   13.9400  -22.8810 C.2    32  THR32       0.2287
     79  O        -41.9080   14.5980  -21.8740 O.2    32  THR32      -0.2866
     80  CB       -44.1200   14.8480  -24.1200 C.3    32  THR32       0.1770
     81  OG1      -44.3870   15.9830  -23.2760 O.3    32  THR32      -0.2211
     82  CG2      -45.4090   14.4580  -24.8510 C.3    32  THR32       0.0375
     83  N        -39.0140   16.2730  -23.5600 N.3    34  GLU34      -0.1245
     84  CA       -38.9090   17.6660  -23.9940 C.3    34  GLU34       0.1567
     85  C        -37.4710   18.0600  -23.8780 C.2    34  GLU34       0.2260
     86  O        -36.7970   17.6740  -22.9180 O.2    34  GLU34      -0.2867
     87  CB       -39.7470   18.5980  -23.1480 C.3    34  GLU34       0.0388
     88  CG       -41.2220   18.3100  -23.1990 C.3    34  GLU34       0.1160
     89  CD       -41.8600   18.4690  -24.6040 C.2    34  GLU34       0.3649
     90  OE1      -41.2790   19.1760  -25.4760 O.co2  34  GLU34      -0.2457
     91  OE2      -42.9780   17.9080  -24.8180 O.co2  34  GLU34      -0.2457
     92  N        -37.0650   23.8550  -23.6870 N.3    38  ASN38      -0.1225
     93  CA       -38.5090   23.9380  -23.4910 C.3    38  ASN38       0.1785
     94  C        -38.9970   24.2360  -22.0490 C.2    38  ASN38       0.2597
     95  O        -40.1250   24.6140  -21.8600 O.2    38  ASN38      -0.2718
     96  CB       -39.1430   22.6610  -24.0070 C.3    38  ASN38       0.1169
     97  CG       -39.2750   22.6720  -25.5320 C.2    38  ASN38       0.2627
     98  OD1      -38.6990   23.5270  -26.2010 O.2    38  ASN38      -0.2716
     99  ND2      -40.0210   21.7270  -26.0710 N.am   38  ASN38      -0.0877
    100  N        -38.1170   24.0910  -21.0560 N.am   39  LEU39      -0.1966
    101  CA       -38.4740   24.2190  -19.6330 C.3    39  LEU39       0.1728
    102  C        -38.1660   25.6010  -19.2240 C.2    39  LEU39       0.2616
    103  O        -37.1680   26.1730  -19.6610 O.2    39  LEU39      -0.2715
    104  CB       -37.6840   23.2500  -18.7680 C.3    39  LEU39       0.0311
    105  CG       -38.1570   21.7950  -18.8010 C.3    39  LEU39       0.0022
    106  CD1      -38.0300   21.0050  -20.1920 C.3    39  LEU39       0.0001
    107  CD2      -37.4770   21.0190  -17.7180 C.3    39  LEU39       0.0001
    108  N        -39.0260   26.1620  -18.3990 N.am   40  ASP40      -0.1957
    109  CA       -38.8070   27.4770  -17.8740 C.3    40  ASP40       0.1840
    110  C        -37.6020   27.6010  -16.8830 C.2    40  ASP40       0.2622
    111  O        -37.0870   28.6800  -16.6810 O.2    40  ASP40      -0.2715
    112  CB       -40.1360   28.0740  -17.3810 C.3    40  ASP40       0.1450
    113  CG       -40.6530   27.4530  -16.0750 C.2    40  ASP40       0.3671
    114  OD1      -40.0110   26.5830  -15.4540 O.co2  40  ASP40      -0.2456
    115  OD2      -41.7140   27.8820  -15.6030 O.co2  40  ASP40      -0.2456
    116  N        -37.1590   26.5230  -16.2620 N.am   41  CYS41      -0.1968
    117  CA       -36.0320   26.5590  -15.3060 C.3    41  CYS41       0.1712
    118  C        -35.3760   25.2030  -15.1460 C.2    41  CYS41       0.2296
    119  O        -35.4390   24.6410  -14.0670 O.2    41  CYS41      -0.2864
    120  CB       -36.4800   26.9900  -13.9240 C.3    41  CYS41       0.0983
    121  SG       -35.1380   27.3290  -12.7220 S.3    41  CYS41      -0.0798
    122  N        -32.9000   24.3150  -12.1770 N.3    44  LEU44      -0.1245
    123  CA       -33.3850   23.7870  -10.9350 C.3    44  LEU44       0.1561
    124  C        -33.1670   22.2880  -10.9030 C.2    44  LEU44       0.2260
    125  O        -32.7680   21.7540   -9.8770 O.2    44  LEU44      -0.2867
    126  CB       -34.8790   24.1230  -10.8270 C.3    44  LEU44       0.0270
    127  CG       -35.7020   23.8990   -9.5680 C.3    44  LEU44       0.0019
    128  CD1      -35.0260   24.5690   -8.3890 C.3    44  LEU44       0.0001
    129  CD2      -37.0920   24.4540   -9.7780 C.3    44  LEU44       0.0001
@<TRIPOS>BOND
     1    98    97    2
     2    99    97   am
     3    97    96    1
     4    90    89   ar
     5    20    18   ar
     6    20    19   ar
     7    82    80    1
     8    18    16   ar
     9    91    89   ar
    10    89    88    1
    11     1     2    1
    12    80    81    1
    13    80    77    1
    14    96    93    1
    15    84    85    1
    16    84    83    1
    17    84    87    1
    18    74    73   ar
    19    85    86    2
    20    92    93    1
    21    19    17   ar
    22    16    15   ar
    23    93    94    1
    24    77    78    1
    25    77    76    1
    26    88    87    1
    27     2     5    1
    28     2     3    1
    29    78    79    2
    30     6     5    1
    31     6     7    1
    32    73    72    1
    33    73    75   ar
    34    69    70    1
    35    69    72    1
    36    69    68    1
    37    71    70    2
    38    17    15   ar
    39    15    14    1
    40    65    67   ar
    41    65    63   ar
    42     4     3    2
    43     3    10   am
    44    94    95    2
    45    94   100   am
    46    67    66   ar
    47    54    56   ar
    48    54    52   ar
    49     7     8   ar
    50     7     9   ar
    51    51    52   ar
    52    51    49   ar
    53    63    62   ar
    54    56    55   ar
    55    10    11    1
    56    52    50   ar
    57    14    11    1
    58   100   101    1
    59    49    48   ar
    60    66    64   ar
    61    11    12    1
    62    55    53   ar
    63    50    48   ar
    64    50    53   ar
    65    62    64   ar
    66    62    61    1
    67   106   105    1
    68    48    47    1
    69   103   102    2
    70    41    40    1
    71   101   102    1
    72   101   104    1
    73    61    58    1
    74    12    13    2
    75    12    21   am
    76   102   108   am
    77    47    44    1
    78    40    39    1
    79    40    42    1
    80    38    37    2
    81    35    36    1
    82   105   104    1
    83   105   107    1
    84    39    36    1
    85    58    59    1
    86    58    57    1
    87   108   109    1
    88    21    22    1
    89    36    37    1
    90   109   112    1
    91   109   110    1
    92    59    60    2
    93    44    43    1
    94    44    45    1
    95   112   113    1
    96    34    32    1
    97    24    23    2
    98   110   111    2
    99   110   116   am
   100    22    23    1
   101    22    25    1
   102    45    46    2
   103    23    28   am
   104   116   117    1
   105    27    25    1
   106   113   115   ar
   107   113   114   ar
   108    28    29    1
   109    25    26    1
   110    32    29    1
   111    32    33    1
   112    29    30    1
   113   117   118    1
   114   117   120    1
   115   118   119    2
   116    30    31    2
   117   120   121    1
   118   122   123    1
   119   123   124    1
   120   123   126    1
   121   124   125    2
   122   126   127    1
   123   129   127    1
   124   127   128    1
