@<TRIPOS>MOLECULE
tmp/3dm1A00.pdb
 150 149 0 0 0
SMALL
GASTEIGER

@<TRIPOS>ATOM
      1  N        -13.0710   24.6710   10.3340 N.3     1  GLU1       -0.1231
      2  CA       -14.2710   25.2310    9.6560 C.3     1  GLU1        0.1699
      3  C        -14.9720   26.1420   10.6010 C.2     1  GLU1        0.2592
      4  O        -14.9250   25.9370   11.8250 O.2     1  GLU1       -0.2718
      5  CB       -15.2150   24.1090    9.2520 C.3     1  GLU1        0.0402
      6  CG       -14.4710   22.8840    8.6580 C.3     1  GLU1        0.1161
      7  CD       -15.4200   21.9340    7.9490 C.2     1  GLU1        0.3649
      8  OE1      -16.1940   21.2350    8.6720 O.co2   1  GLU1       -0.2457
      9  OE2      -15.4020   21.9150    6.6810 O.co2   1  GLU1       -0.2457
     10  N        -15.6280   27.1490   10.0300 N.am    2  PHE2       -0.1962
     11  CA       -16.3600   28.1820   10.7330 C.3     2  PHE2        0.1771
     12  C        -17.6530   28.3930    9.9680 C.2     2  PHE2        0.2619
     13  O        -17.7120   28.1330    8.7600 O.2     2  PHE2       -0.2715
     14  CB       -15.5390   29.5070   10.7290 C.3     2  PHE2        0.0574
     15  CG       -14.2450   29.4310   11.4960 C.ar    2  PHE2       -0.0200
     16  CD1      -14.1820   29.8780   12.7990 C.ar    2  PHE2       -0.0042
     17  CD2      -13.0910   28.9130   10.9010 C.ar    2  PHE2       -0.0042
     18  CE1      -12.9890   29.7970   13.5400 C.ar    2  PHE2       -0.0003
     19  CE2      -11.8630   28.8210   11.6090 C.ar    2  PHE2       -0.0003
     20  CZ       -11.8250   29.2620   12.9470 C.ar    2  PHE2       -0.0000
     21  N        -18.6740   28.8920   10.6550 N.am    3  VAL3       -0.1963
     22  CA       -19.9730   29.1030   10.1050 C.3     3  VAL3        0.1727
     23  C        -19.8810   30.3200    9.1990 C.2     3  VAL3        0.2616
     24  O        -19.1820   31.3190    9.5520 O.2     3  VAL3       -0.2715
     25  CB       -20.9880   29.3800   11.2190 C.3     3  VAL3        0.0290
     26  CG1      -22.3350   29.7620   10.6320 C.3     3  VAL3        0.0023
     27  CG2      -21.1140   28.1660   12.1720 C.3     3  VAL3        0.0023
     28  N        -20.5780   30.2540    8.0560 N.am    4  VAL4       -0.1977
     29  CA       -20.5410   31.2910    7.0350 C.3     4  VAL4        0.1596
     30  C        -21.7750   32.1060    7.2940 C.2     4  VAL4        0.2287
     31  O        -22.8300   31.5520    7.3730 O.2     4  VAL4       -0.2864
     32  CB       -20.5630   30.6910    5.5730 C.3     4  VAL4        0.0276
     33  CG1      -20.6790   31.7950    4.5220 C.3     4  VAL4        0.0022
     34  CG2      -19.3360   29.7620    5.2920 C.3     4  VAL4        0.0022
     35  N        -16.3680   35.6820    1.7310 N.3    21  LEU21      -0.1245
     36  CA       -17.2580   35.3060    2.8390 C.3    21  LEU21       0.1561
     37  C        -17.2480   36.2300    4.0530 C.2    21  LEU21       0.2260
     38  O        -16.1850   36.5840    4.5580 O.2    21  LEU21      -0.2867
     39  CB       -16.9050   33.8700    3.2950 C.3    21  LEU21       0.0270
     40  CG       -16.8410   32.7230    2.2580 C.3    21  LEU21       0.0019
     41  CD1      -16.4520   31.3340    2.8360 C.3    21  LEU21       0.0001
     42  CD2      -18.0780   32.6710    1.3740 C.3    21  LEU21       0.0001
     43  N        -17.9740   35.6550    7.9430 N.3    23  TRP23      -0.1241
     44  CA       -18.0080   34.5520    8.8830 C.3    23  TRP23       0.1605
     45  C        -18.8770   34.9710   10.0300 C.2    23  TRP23       0.2264
     46  O        -18.8020   36.1090   10.4520 O.2    23  TRP23      -0.2867
     47  CB       -16.6250   34.2350    9.3870 C.3    23  TRP23       0.0550
     48  CG       -15.7160   33.8890    8.3060 C.ar   23  TRP23       0.0003
     49  CD1      -14.8790   34.7560    7.6260 C.ar   23  TRP23       0.0946
     50  CD2      -15.5550   32.5930    7.6800 C.ar   23  TRP23       0.0152
     51  NE1      -14.1800   34.0670    6.6380 N.ar   23  TRP23      -0.2442
     52  CE2      -14.5870   32.7480    6.6390 C.ar   23  TRP23       0.0810
     53  CE3      -16.1580   31.3250    7.8660 C.ar   23  TRP23       0.0012
     54  CZ2      -14.1620   31.6760    5.8590 C.ar   23  TRP23       0.0191
     55  CZ3      -15.7440   30.2580    7.0590 C.ar   23  TRP23       0.0001
     56  CH2      -14.7620   30.4460    6.0690 C.ar   23  TRP23       0.0015
     57  N        -18.0290   37.2370   13.4640 N.3    26  PHE26      -0.1241
     58  CA       -16.7760   37.9240   13.2020 C.3    26  PHE26       0.1605
     59  C        -17.1920   39.1570   12.4210 C.2    26  PHE26       0.2264
     60  O        -18.2490   39.1480   11.7980 O.2    26  PHE26      -0.2867
     61  CB       -15.8200   37.0550   12.3980 C.3    26  PHE26       0.0534
     62  CG       -15.3460   35.8300   13.1260 C.ar   26  PHE26      -0.0203
     63  CD1      -14.1550   35.8550   13.8690 C.ar   26  PHE26      -0.0042
     64  CD2      -16.0930   34.6290   13.0720 C.ar   26  PHE26      -0.0042
     65  CE1      -13.7040   34.7400   14.5390 C.ar   26  PHE26      -0.0003
     66  CE2      -15.6690   33.4780   13.7400 C.ar   26  PHE26      -0.0003
     67  CZ       -14.4540   33.5380   14.4750 C.ar   26  PHE26      -0.0000
     68  N        -12.6330   40.5810    9.1730 N.3    30  ASP30      -0.1239
     69  CA       -12.2530   39.1640    9.1020 C.3    30  ASP30       0.1674
     70  C        -12.7570   38.4740    7.7940 C.2    30  ASP30       0.2266
     71  O        -12.5290   37.2970    7.6260 O.2    30  ASP30      -0.2867
     72  CB       -12.8250   38.4100   10.3150 C.3    30  ASP30       0.1410
     73  CG       -11.8360   38.3180   11.5220 C.2    30  ASP30       0.3668
     74  OD1      -10.6350   38.0090   11.3550 O.co2  30  ASP30      -0.2456
     75  OD2      -12.2850   38.5370   12.6800 O.co2  30  ASP30      -0.2456
     76  N        -12.8920   36.8670    4.2020 N.3    32  THR32      -0.1203
     77  CA       -11.8010   36.2440    3.4500 C.3    32  THR32       0.1994
     78  C        -12.3160   35.7430    2.1020 C.2    32  THR32       0.2618
     79  O        -13.5140   35.5910    1.8980 O.2    32  THR32      -0.2717
     80  CB       -11.1770   35.0830    4.2120 C.3    32  THR32       0.1784
     81  OG1      -12.1990   34.1210    4.5800 O.3    32  THR32      -0.2211
     82  CG2      -10.3350   35.5760    5.4590 C.3    32  THR32       0.0376
     83  N        -11.3970   35.5390    1.1660 N.am   33  TRP33      -0.1961
     84  CA       -11.6960   34.9920   -0.1290 C.3    33  TRP33       0.1771
     85  C        -11.3430   33.5720    0.0750 C.2    33  TRP33       0.2619
     86  O        -10.2660   33.3140    0.6190 O.2    33  TRP33      -0.2715
     87  CB       -10.7780   35.6030   -1.1850 C.3    33  TRP33       0.0590
     88  CG       -11.2960   36.9730   -1.6660 C.ar   33  TRP33       0.0006
     89  CD1      -10.8930   38.2010   -1.2430 C.ar   33  TRP33       0.0946
     90  CD2      -12.3350   37.1960   -2.6220 C.ar   33  TRP33       0.0152
     91  NE1      -11.6250   39.1800   -1.8590 N.ar   33  TRP33      -0.2442
     92  CE2      -12.5230   38.5860   -2.7140 C.ar   33  TRP33       0.0810
     93  CE3      -13.1560   36.3410   -3.3980 C.ar   33  TRP33       0.0012
     94  CZ2      -13.4660   39.1530   -3.5690 C.ar   33  TRP33       0.0191
     95  CZ3      -14.0730   36.9190   -4.2640 C.ar   33  TRP33       0.0001
     96  CH2      -14.2300   38.2940   -4.3260 C.ar   33  TRP33       0.0015
     97  N        -12.2520   32.6520   -0.2890 N.am   34  GLU34      -0.1964
     98  CA       -11.9820   31.1870   -0.1470 C.3    34  GLU34       0.1718
     99  C        -12.1930   30.4490   -1.4610 C.2    34  GLU34       0.2458
    100  O        -13.1430   30.7660   -2.1930 O.2    34  GLU34      -0.2730
    101  CB       -12.8830   30.5380    0.9480 C.3    34  GLU34       0.0428
    102  CG       -12.7810   31.1480    2.3120 C.3    34  GLU34       0.1163
    103  CD       -11.4010   31.0470    2.9260 C.2    34  GLU34       0.3649
    104  OE1      -10.6260   30.1540    2.5700 O.co2  34  GLU34      -0.2457
    105  OE2      -11.0750   31.8640    3.7890 O.co2  34  GLU34      -0.2457
    106  N        -11.3230   29.4720   -1.7710 N.am   35  PRO35      -0.2727
    107  CA       -11.5260   28.6910   -2.9980 C.3    35  PRO35       0.1402
    108  C        -12.8070   27.8830   -2.8730 C.2    35  PRO35       0.2269
    109  O        -13.1900   27.5150   -1.7690 O.2    35  PRO35      -0.2865
    110  CB       -10.3060   27.8010   -3.0750 C.3    35  PRO35       0.0296
    111  CG        -9.7410   27.7680   -1.7000 C.3    35  PRO35       0.0237
    112  CD       -10.1140   29.0670   -1.0460 C.3    35  PRO35       0.0939
    113  N        -13.4660   24.9090   -0.5470 N.3    38  ASN38      -0.1225
    114  CA       -13.5020   25.1270    0.9020 C.3    38  ASN38       0.1785
    115  C        -14.9510   25.2210    1.4140 C.2    38  ASN38       0.2597
    116  O        -15.1980   25.1750    2.6130 O.2    38  ASN38      -0.2718
    117  CB       -12.6960   26.3840    1.2820 C.3    38  ASN38       0.1169
    118  CG       -11.2130   26.0970    1.5320 C.2    38  ASN38       0.2627
    119  OD1      -10.6770   25.0910    1.0600 O.2    38  ASN38      -0.2716
    120  ND2      -10.5440   26.9930    2.2810 N.am   38  ASN38      -0.0877
    121  N        -15.8990   25.3520    0.4960 N.am   39  LEU39      -0.1966
    122  CA       -17.3090   25.4870    0.8350 C.3    39  LEU39       0.1728
    123  C        -18.0100   24.0870    0.7770 C.2    39  LEU39       0.2616
    124  O        -17.5290   23.1760    0.0730 O.2    39  LEU39      -0.2715
    125  CB       -18.0090   26.4980   -0.1090 C.3    39  LEU39       0.0311
    126  CG       -17.7660   28.0200    0.1060 C.3    39  LEU39       0.0022
    127  CD1      -16.2500   28.5000    0.0590 C.3    39  LEU39       0.0001
    128  CD2      -18.5860   28.8410   -0.8310 C.3    39  LEU39       0.0001
    129  N        -19.1230   23.9090    1.5060 N.am   40  ASP40      -0.1957
    130  CA       -19.7920   22.6180    1.4880 C.3    40  ASP40       0.1840
    131  C        -20.6820   22.5430    0.2710 C.2    40  ASP40       0.2622
    132  O        -20.7770   21.4980   -0.3230 O.2    40  ASP40      -0.2715
    133  CB       -20.5310   22.2370    2.8040 C.3    40  ASP40       0.1450
    134  CG       -21.4940   23.2760    3.3000 C.2    40  ASP40       0.3671
    135  OD1      -21.9090   24.2240    2.5970 O.co2  40  ASP40      -0.2456
    136  OD2      -21.9030   23.1360    4.4720 O.co2  40  ASP40      -0.2456
    137  N        -21.2480   23.6810   -0.1240 N.am   41  CYS41      -0.1968
    138  CA       -22.1300   23.7480   -1.2440 C.3    41  CYS41       0.1712
    139  C        -21.8870   24.9800   -2.1200 C.2    41  CYS41       0.2296
    140  O        -22.7560   25.8420   -2.2080 O.2    41  CYS41      -0.2864
    141  CB       -23.5750   23.7640   -0.7430 C.3    41  CYS41       0.0983
    142  SG       -24.7810   23.4290   -2.0430 S.3    41  CYS41      -0.0798
    143  N        -24.7970   26.0950   -4.7610 N.3    44  LEU44      -0.1245
    144  CA       -25.8850   26.9870   -4.4280 C.3    44  LEU44       0.1561
    145  C        -25.6190   28.4260   -4.8890 C.2    44  LEU44       0.2260
    146  O        -26.5340   29.1190   -5.3670 O.2    44  LEU44      -0.2867
    147  CB       -26.1020   26.9270   -2.9110 C.3    44  LEU44       0.0270
    148  CG       -27.2970   27.6030   -2.2740 C.3    44  LEU44       0.0019
    149  CD1      -28.5810   27.1100   -2.8580 C.3    44  LEU44       0.0001
    150  CD2      -27.2200   27.3340   -0.7200 C.3    44  LEU44       0.0001
@<TRIPOS>BOND
     1   146   145    2
     2   145   144    1
     3   143   144    1
     4   144   147    1
     5    96    95   ar
     6    96    94   ar
     7    95    93   ar
     8    94    92   ar
     9    93    90   ar
    10   110   107    1
    11   110   111    1
    12   107   108    1
    13   107   106    1
    14   147   148    1
    15   108   109    2
    16   149   148    1
    17    92    90   ar
    18    92    91   ar
    19    90    88   ar
    20   148   150    1
    21   140   139    2
    22   100    99    2
    23   139   138    1
    24   142   141    1
    25    91    89   ar
    26   106    99   am
    27   106   112    1
    28   111   112    1
    29    88    89   ar
    30    88    87    1
    31    99    98    1
    32   138   141    1
    33   138   137    1
    34    87    84    1
    35   128   126    1
    36   113   114    1
    37   132   131    2
    38    97    98    1
    39    97    85   am
    40    98   101    1
    41    84    85    1
    42    84    83    1
    43   137   131   am
    44   125   126    1
    45   125   122    1
    46   127   126    1
    47   124   123    2
    48    85    86    2
    49   131   130    1
    50   121   122    1
    51   121   115   am
    52   123   122    1
    53   123   129   am
    54   114   117    1
    55   114   115    1
    56   101   102    1
    57   119   118    2
    58    83    78   am
    59   117   118    1
    60    42    40    1
    61   115   116    2
    62   130   129    1
    63   130   133    1
    64   118   120   am
    65    35    36    1
    66    79    78    2
    67    78    77    1
    68    40    41    1
    69    40    39    1
    70   102   103    1
    71   104   103   ar
    72   135   134   ar
    73   133   134    1
    74    36    39    1
    75    36    37    1
    76   103   105   ar
    77   134   136   ar
    78    77    76    1
    79    77    80    1
    80    37    38    2
    81    80    81    1
    82    80    82    1
    83    33    32    1
    84    34    32    1
    85    32    29    1
    86    54    56   ar
    87    54    52   ar
    88    56    55   ar
    89    51    52   ar
    90    51    49   ar
    91    52    50   ar
    92     9     7   ar
    93    29    30    1
    94    29    28    1
    95    55    53   ar
    96    30    31    2
    97    49    48   ar
    98    71    70    2
    99    50    53   ar
   100    50    48   ar
   101    70    69    1
   102    43    44    1
   103     7     6    1
   104     7     8   ar
   105    28    23   am
   106    48    47    1
   107     6     5    1
   108    13    12    2
   109    44    47    1
   110    44    45    1
   111    69    68    1
   112    69    72    1
   113    23    24    2
   114    23    22    1
   115     5     2    1
   116     2     1    1
   117     2     3    1
   118    12    21   am
   119    12    11    1
   120    45    46    2
   121    10     3   am
   122    10    11    1
   123    22    21    1
   124    22    25    1
   125    72    73    1
   126     3     4    2
   127    26    25    1
   128    14    11    1
   129    14    15    1
   130    17    15   ar
   131    17    19   ar
   132    25    27    1
   133    74    73   ar
   134    15    16   ar
   135    73    75   ar
   136    19    20   ar
   137    60    59    2
   138    61    62    1
   139    61    58    1
   140    59    58    1
   141    16    18   ar
   142    20    18   ar
   143    64    62   ar
   144    64    66   ar
   145    62    63   ar
   146    58    57    1
   147    66    67   ar
   148    63    65   ar
   149    67    65   ar
