@<TRIPOS>MOLECULE
tmp/3dm2A00.pdb
 211 212 0 0 0
SMALL
GASTEIGER

@<TRIPOS>ATOM
      1  N          6.7950  -28.8220   26.4850 N.3    90  PRO90      -0.2116
      2  CA         6.0120  -29.1560   25.2870 C.3    90  PRO90       0.1372
      3  C          5.0430  -28.0600   24.8490 C.2    90  PRO90       0.2244
      4  O          4.2540  -27.5640   25.6620 O.2    90  PRO90      -0.2868
      5  CB         5.2720  -30.4250   25.7020 C.3    90  PRO90       0.0268
      6  CG         6.2010  -31.0520   26.7000 C.3    90  PRO90       0.0207
      7  CD         6.6440  -29.8690   27.5130 C.3    90  PRO90       0.0892
      8  N          1.8210  -26.9170   22.5820 N.3    92  PRO92      -0.2116
      9  CA         0.5860  -27.3560   21.9310 C.3    92  PRO92       0.1372
     10  C          0.6280  -27.3030   20.4110 C.2    92  PRO92       0.2244
     11  O          0.0270  -28.1340   19.7390 O.2    92  PRO92      -0.2868
     12  CB        -0.4570  -26.4100   22.5170 C.3    92  PRO92       0.0268
     13  CG         0.0510  -26.2180   23.9180 C.3    92  PRO92       0.0207
     14  CD         1.5260  -25.9870   23.6870 C.3    92  PRO92       0.0892
     15  N          1.6980  -30.6700   18.8610 N.3    95  LEU95      -0.1231
     16  CA         1.0150  -31.9300   19.1540 C.3    95  LEU95       0.1693
     17  C          0.2680  -32.4560   17.9400 C.2    95  LEU95       0.2592
     18  O         -0.5650  -31.7550   17.3520 O.2    95  LEU95      -0.2718
     19  CB         0.0170  -31.7660   20.3060 C.3    95  LEU95       0.0284
     20  CG         0.5260  -31.2690   21.6630 C.3    95  LEU95       0.0019
     21  CD1       -0.6410  -31.1910   22.6270 C.3    95  LEU95       0.0001
     22  CD2        1.5980  -32.1880   22.2110 C.3    95  LEU95       0.0001
     23  N          0.5830  -33.6890   17.5550 N.am   96  LYS96      -0.1966
     24  CA        -0.0940  -34.2990   16.4270 C.3    96  LYS96       0.1728
     25  C         -1.4970  -34.5030   16.9410 C.2    96  LYS96       0.2616
     26  O         -1.6880  -34.7060   18.1390 O.2    96  LYS96      -0.2715
     27  CB         0.5420  -35.6460   16.0580 C.3    96  LYS96       0.0311
     28  CG         1.7890  -35.5080   15.1860 C.3    96  LYS96       0.0038
     29  CD         2.4320  -36.8540   14.8450 C.3    96  LYS96       0.0206
     30  CE         3.7450  -36.6550   14.0760 C.3    96  LYS96       0.1093
     31  NZ         4.5120  -37.9180   13.8570 N.3    96  LYS96      -0.1314
     32  N         -2.4820  -34.4150   16.0590 N.am   97  LYS97      -0.1963
     33  CA        -3.8490  -34.6160   16.4960 C.3    97  LYS97       0.1728
     34  C         -4.1190  -36.1070   16.6330 C.2    97  LYS97       0.2616
     35  O         -3.9950  -36.8590   15.6670 O.2    97  LYS97      -0.2715
     36  CB        -4.8440  -34.0030   15.5050 C.3    97  LYS97       0.0311
     37  CG        -6.3070  -34.1890   15.9250 C.3    97  LYS97       0.0038
     38  CD        -7.2840  -33.5110   14.9720 C.3    97  LYS97       0.0206
     39  CE        -8.7270  -33.6680   15.4490 C.3    97  LYS97       0.1093
     40  NZ        -9.7230  -33.0890   14.4930 N.3    97  LYS97      -0.1314
     41  N         -4.4630  -36.5250   17.8470 N.am   98  ASN98      -0.1958
     42  CA        -4.7890  -37.9150   18.1320 C.3    98  ASN98       0.1819
     43  C         -6.3090  -37.9790   18.2100 C.2    98  ASN98       0.2621
     44  O         -6.9600  -36.9760   18.4990 O.2    98  ASN98      -0.2715
     45  CB        -4.1960  -38.3340   19.4750 C.3    98  ASN98       0.1195
     46  CG        -2.7360  -38.7310   19.3740 C.2    98  ASN98       0.2630
     47  OD1       -2.3940  -39.9090   19.5150 O.2    98  ASN98      -0.2716
     48  ND2       -1.8650  -37.7550   19.1220 N.am   98  ASN98      -0.0877
     49  N         -6.8870  -39.1410   17.9390 N.am   99  LYS99      -0.1963
     50  CA        -8.3360  -39.2600   18.0060 C.3    99  LYS99       0.1728
     51  C         -8.8130  -39.3470   19.4580 C.2    99  LYS99       0.2617
     52  O         -9.9590  -39.0130   19.7610 O.2    99  LYS99      -0.2715
     53  CB        -8.8060  -40.4900   17.2170 C.3    99  LYS99       0.0311
     54  CG        -8.7830  -40.2980   15.7000 C.3    99  LYS99       0.0038
     55  CD        -9.2940  -41.5300   14.9540 C.3    99  LYS99       0.0206
     56  CE        -9.3010  -41.2950   13.4450 C.3    99  LYS99       0.1093
     57  NZ        -9.5570  -42.5330   12.6480 N.3    99  LYS99      -0.1314
     58  N         -7.9200  -39.7710   20.3510 N.am  100  SER100     -0.1936
     59  CA        -8.2530  -39.9240   21.7650 C.3   100  SER100      0.2055
     60  C         -7.0340  -39.7570   22.6630 C.2   100  SER100      0.2642
     61  O         -5.9470  -40.2410   22.3440 O.2   100  SER100     -0.2714
     62  CB        -8.8390  -41.3080   22.0020 C.3   100  SER100      0.2130
     63  OG        -9.6550  -41.6830   20.9150 O.3   100  SER100     -0.2179
     64  N         -7.2250  -39.1020   23.8030 N.am  101  VAL101     -0.1977
     65  CA        -6.1340  -38.8750   24.7480 C.3   101  VAL101      0.1596
     66  C         -6.5470  -39.0950   26.2100 C.2   101  VAL101      0.2287
     67  O         -7.6720  -38.7670   26.6120 O.2   101  VAL101     -0.2864
     68  CB        -5.5820  -37.4540   24.5840 C.3   101  VAL101      0.0276
     69  CG1       -4.6170  -37.1310   25.7120 C.3   101  VAL101      0.0022
     70  CG2       -4.8970  -37.3280   23.2260 C.3   101  VAL101      0.0022
     71  N          1.1460  -42.9680   21.4710 N.3   172  VAL172     -0.1245
     72  CA         2.0790  -41.9550   21.9410 C.3   172  VAL172      0.1561
     73  C          1.8700  -41.5400   23.3910 C.2   172  VAL172      0.2260
     74  O          0.7660  -41.1700   23.7940 O.2   172  VAL172     -0.2867
     75  CB         1.9840  -40.6970   21.0640 C.3   172  VAL172      0.0252
     76  CG1        2.3300  -41.0450   19.6280 C.3   172  VAL172      0.0019
     77  CG2        0.5760  -40.1270   21.1280 C.3   172  VAL172      0.0019
     78  N          3.2830  -39.0190   26.4790 N.3   174  TYR174     -0.1241
     79  CA         4.0710  -37.8360   26.7350 C.3   174  TYR174      0.1605
     80  C          4.3320  -37.7450   28.2190 C.2   174  TYR174      0.2264
     81  O          3.4100  -37.6680   29.0370 O.2   174  TYR174     -0.2867
     82  CB         3.3580  -36.5810   26.2560 C.3   174  TYR174      0.0534
     83  CG         3.3310  -36.4010   24.7560 C.ar  174  TYR174     -0.0201
     84  CD1        3.0840  -35.1420   24.2010 C.ar  174  TYR174     -0.0009
     85  CD2        3.5120  -37.4860   23.8860 C.ar  174  TYR174     -0.0009
     86  CE1        3.0120  -34.9610   22.8210 C.ar  174  TYR174      0.0417
     87  CE2        3.4410  -37.3180   22.4940 C.ar  174  TYR174      0.0417
     88  CZ         3.1860  -36.0450   21.9680 C.ar  174  TYR174      0.1957
     89  OH         3.0790  -35.8390   20.6010 O.3   174  TYR174     -0.2866
     90  N          5.5410  -35.8870   31.4310 N.3   176  TYR176     -0.1241
     91  CA         5.6460  -34.5350   31.9220 C.3   176  TYR176      0.1605
     92  C          5.3070  -34.5060   33.3900 C.2   176  TYR176      0.2264
     93  O          4.1610  -34.7090   33.7750 O.2   176  TYR176     -0.2867
     94  CB         4.7210  -33.6130   31.1370 C.3   176  TYR176      0.0534
     95  CG         4.8510  -32.1650   31.5400 C.ar  176  TYR176     -0.0201
     96  CD1        4.1720  -31.6690   32.6550 C.ar  176  TYR176     -0.0009
     97  CD2        5.6690  -31.2900   30.8200 C.ar  176  TYR176     -0.0009
     98  CE1        4.2980  -30.3360   33.0410 C.ar  176  TYR176      0.0417
     99  CE2        5.8040  -29.9530   31.2000 C.ar  176  TYR176      0.0417
    100  CZ         5.1140  -29.4840   32.3130 C.ar  176  TYR176      0.1957
    101  OH         5.2250  -28.1670   32.6980 O.3   176  TYR176     -0.2866
    102  N          0.7880  -38.3500   29.1930 N.3   181  TYR181     -0.1227
    103  CA        -0.2390  -37.9800   28.2380 C.3   181  TYR181      0.1736
    104  C         -0.2190  -39.0170   27.1500 C.2   181  TYR181      0.2595
    105  O          0.6990  -39.0660   26.3380 O.2   181  TYR181     -0.2718
    106  CB         0.0240  -36.5820   27.7180 C.3   181  TYR181      0.0548
    107  CG        -0.1310  -35.6060   28.8530 C.ar  181  TYR181     -0.0200
    108  CD1        0.9460  -35.2830   29.6830 C.ar  181  TYR181     -0.0009
    109  CD2       -1.3870  -35.0920   29.1720 C.ar  181  TYR181     -0.0009
    110  CE1        0.7670  -34.4710   30.8050 C.ar  181  TYR181      0.0417
    111  CE2       -1.5760  -34.2920   30.2850 C.ar  181  TYR181      0.0417
    112  CZ        -0.5030  -33.9800   31.0940 C.ar  181  TYR181      0.1957
    113  OH        -0.7130  -33.1610   32.1760 O.3   181  TYR181     -0.2866
    114  N         -1.2400  -39.8640   27.1680 N.am  182  VAL182     -0.1966
    115  CA        -1.3730  -40.9740   26.2350 C.3   182  VAL182      0.1727
    116  C         -2.4870  -40.8100   25.1950 C.2   182  VAL182      0.2616
    117  O         -3.6800  -40.7820   25.5370 O.2   182  VAL182     -0.2715
    118  CB        -1.6310  -42.2720   27.0200 C.3   182  VAL182      0.0290
    119  CG1       -1.3600  -43.4830   26.1420 C.3   182  VAL182      0.0023
    120  CG2       -0.7710  -42.2930   28.2750 C.3   182  VAL182      0.0023
    121  N         -2.0910  -40.7260   23.9240 N.am  183  GLY183     -0.1955
    122  CA        -3.0650  -40.5670   22.8570 C.3   183  GLY183      0.1869
    123  C         -2.9090  -41.5690   21.7250 C.2   183  GLY183      0.2309
    124  O         -1.8940  -42.2700   21.6530 O.2   183  GLY183     -0.2863
    125  N         -8.5010  -47.8780   22.1800 N.3   191  HIS191     -0.1241
    126  CA        -7.7290  -46.9280   22.9850 C.3   191  HIS191      0.1621
    127  C         -7.9610  -47.2750   24.4530 C.2   191  HIS191      0.2264
    128  O         -7.0430  -47.6900   25.1710 O.2   191  HIS191     -0.2867
    129  CB        -8.2040  -45.4860   22.7050 C.3   191  HIS191      0.0745
    130  CG        -7.4300  -44.4150   23.4310 C.ar  191  HIS191      0.0817
    131  ND1       -6.1330  -44.0680   23.1040 N.ar  191  HIS191     -0.2268
    132  CD2       -7.7940  -43.5740   24.4300 C.ar  191  HIS191      0.1154
    133  CE1       -5.7370  -43.0630   23.8630 C.ar  191  HIS191      0.1986
    134  NE2       -6.7270  -42.7430   24.6780 N.ar  191  HIS191     -0.2212
    135  N        -10.9480  -33.4020   29.3480 N.3   218  PRO218     -0.2116
    136  CA       -10.8500  -32.2670   28.4230 C.3   218  PRO218      0.1372
    137  C        -11.8680  -31.1720   28.7530 C.2   218  PRO218      0.2244
    138  O        -12.8900  -31.4380   29.3910 O.2   218  PRO218     -0.2868
    139  CB       -11.1190  -32.9080   27.0660 C.3   218  PRO218      0.0268
    140  CG       -10.5580  -34.2840   27.2400 C.3   218  PRO218      0.0207
    141  CD       -11.0430  -34.6740   28.6090 C.3   218  PRO218      0.0892
    142  N         -8.0580  -29.4520   28.1920 N.3   220  PHE220     -0.1227
    143  CA        -6.9850  -29.4430   29.1470 C.3   220  PHE220      0.1736
    144  C         -6.2970  -28.0920   29.1970 C.2   220  PHE220      0.2595
    145  O         -6.0900  -27.4390   28.1770 O.2   220  PHE220     -0.2718
    146  CB        -6.0230  -30.5850   28.8250 C.3   220  PHE220      0.0547
    147  CG        -6.6470  -31.9550   28.9860 C.ar  220  PHE220     -0.0202
    148  CD1       -7.0610  -32.4060   30.2430 C.ar  220  PHE220     -0.0042
    149  CD2       -6.8390  -32.7860   27.8810 C.ar  220  PHE220     -0.0042
    150  CE1       -7.6610  -33.6640   30.4010 C.ar  220  PHE220     -0.0003
    151  CE2       -7.4390  -34.0470   28.0230 C.ar  220  PHE220     -0.0003
    152  CZ        -7.8500  -34.4870   29.2900 C.ar  220  PHE220     -0.0000
    153  N         -5.9820  -27.6700   30.4140 N.am  221  LEU221     -0.1966
    154  CA        -5.3280  -26.3940   30.6440 C.3   221  LEU221      0.1728
    155  C         -3.8210  -26.5260   30.5150 C.2   221  LEU221      0.2616
    156  O         -3.1520  -27.0110   31.4290 O.2   221  LEU221     -0.2715
    157  CB        -5.6740  -25.8880   32.0410 C.3   221  LEU221      0.0311
    158  CG        -7.1690  -25.9230   32.3530 C.3   221  LEU221      0.0022
    159  CD1       -7.3870  -25.5080   33.7990 C.3   221  LEU221      0.0001
    160  CD2       -7.9230  -25.0050   31.3820 C.3   221  LEU221      0.0001
    161  N         -3.2830  -26.1020   29.3790 N.am  222  TRP222     -0.1974
    162  CA        -1.8480  -26.1810   29.1870 C.3   222  TRP222      0.1640
    163  C         -1.2390  -24.8040   29.0360 C.2   222  TRP222      0.2290
    164  O         -1.4080  -24.1360   28.0140 O.2   222  TRP222     -0.2864
    165  CB        -1.4920  -27.0130   27.9600 C.3   222  TRP222      0.0576
    166  CG        -0.0570  -27.4570   27.9830 C.ar  222  TRP222      0.0006
    167  CD1        0.9290  -27.1450   27.0810 C.ar  222  TRP222      0.0946
    168  CD2        0.5540  -28.2840   28.9740 C.ar  222  TRP222      0.0152
    169  NE1        2.1170  -27.7340   27.4550 N.ar  222  TRP222     -0.2442
    170  CE2        1.9130  -28.4390   28.6150 C.ar  222  TRP222      0.0810
    171  CE3        0.0840  -28.9150   30.1370 C.ar  222  TRP222      0.0012
    172  CZ2        2.8060  -29.1910   29.3760 C.ar  222  TRP222      0.0191
    173  CZ3        0.9690  -29.6620   30.8930 C.ar  222  TRP222      0.0001
    174  CH2        2.3160  -29.7960   30.5090 C.ar  222  TRP222      0.0015
    175  N         -6.9860  -27.2090   25.9560 N.3   227  LEU227     -0.1231
    176  CA        -6.8220  -28.1800   24.8920 C.3   227  LEU227      0.1693
    177  C         -8.0550  -28.9600   24.5220 C.2   227  LEU227      0.2592
    178  O         -8.4240  -29.9390   25.1640 O.2   227  LEU227     -0.2718
    179  CB        -5.6660  -29.1260   25.2110 C.3   227  LEU227      0.0284
    180  CG        -4.3180  -28.3910   25.1050 C.3   227  LEU227      0.0019
    181  CD1       -3.1620  -29.3840   25.1260 C.3   227  LEU227      0.0001
    182  CD2       -4.2870  -27.5910   23.8040 C.3   227  LEU227      0.0001
    183  N         -8.6820  -28.4920   23.4540 N.am  228  HIS228     -0.1962
    184  CA        -9.8780  -29.1010   22.9200 C.3   228  HIS228      0.1772
    185  C         -9.4500  -30.1340   21.8780 C.2   228  HIS228      0.2462
    186  O         -8.4590  -29.9640   21.1790 O.2   228  HIS228     -0.2730
    187  CB       -10.7730  -28.0190   22.3150 C.3   228  HIS228      0.0785
    188  CG       -11.1990  -26.9730   23.3030 C.ar  228  HIS228      0.0821
    189  ND1      -12.0370  -27.2470   24.3620 N.ar  228  HIS228     -0.2267
    190  CD2      -10.8890  -25.6580   23.4010 C.ar  228  HIS228      0.1154
    191  CE1      -12.2270  -26.1470   25.0700 C.ar  228  HIS228      0.1986
    192  NE2      -11.5410  -25.1680   24.5080 N.ar  228  HIS228     -0.2212
    193  N        -10.2050  -31.2260   21.7730 N.am  229  PRO229     -0.2727
    194  CA        -9.9840  -32.3460   20.8600 C.3   229  PRO229      0.1402
    195  C         -9.5370  -32.0170   19.4400 C.2   229  PRO229      0.2269
    196  O         -8.5580  -32.5770   18.9400 O.2   229  PRO229     -0.2865
    197  CB       -11.3330  -33.0580   20.8740 C.3   229  PRO229      0.0296
    198  CG       -11.8150  -32.8070   22.2600 C.3   229  PRO229      0.0237
    199  CD       -11.5150  -31.3520   22.4350 C.3   229  PRO229      0.0939
    200  N         -4.2420  -28.3590   15.5170 N.3   310  TYR310     -0.1241
    201  CA        -3.1520  -29.2200   15.9820 C.3   310  TYR310      0.1605
    202  C         -2.1900  -29.6240   14.8620 C.2   310  TYR310      0.2264
    203  O         -2.3790  -29.2450   13.6990 O.2   310  TYR310     -0.2867
    204  CB        -3.7210  -30.4630   16.6540 C.3   310  TYR310      0.0534
    205  CG        -4.3770  -30.1600   17.9720 C.ar  310  TYR310     -0.0201
    206  CD1       -3.6620  -29.5300   18.9860 C.ar  310  TYR310     -0.0009
    207  CD2       -5.7030  -30.5130   18.2190 C.ar  310  TYR310     -0.0009
    208  CE1       -4.2480  -29.2560   20.2320 C.ar  310  TYR310      0.0417
    209  CE2       -6.3060  -30.2440   19.4610 C.ar  310  TYR310      0.0417
    210  CZ        -5.5680  -29.6140   20.4700 C.ar  310  TYR310      0.1957
    211  OH        -6.1250  -29.3420   21.7100 O.3   310  TYR310     -0.2866
@<TRIPOS>BOND
     1    57    56    1
     2    56    55    1
     3   203   202    2
     4    31    30    1
     5    30    29    1
     6    40    39    1
     7    29    28    1
     8   202   201    1
     9    55    54    1
    10    38    39    1
    11    38    37    1
    12    28    27    1
    13    36    37    1
    14    36    33    1
    15   200   201    1
    16    35    34    2
    17    54    53    1
    18   201   204    1
    19    27    24    1
    20    32    33    1
    21    32    25   am
    22    24    25    1
    23    24    23    1
    24    33    34    1
    25    34    41   am
    26   204   205    1
    27    25    26    2
    28    53    50    1
    29    18    17    2
    30    23    17   am
    31    41    42    1
    32    49    50    1
    33    49    43   am
    34    17    16    1
    35   205   207   ar
    36   205   206   ar
    37    50    51    1
    38    42    43    1
    39    42    45    1
    40    43    44    2
    41   207   209   ar
    42    15    16    1
    43   196   195    2
    44   206   208   ar
    45    48    46   am
    46    16    19    1
    47    46    45    1
    48    46    47    2
    49   195   194    1
    50    51    52    2
    51    51    58   am
    52   209   210   ar
    53    76    75    1
    54    11    10    2
    55   208   210   ar
    56    19    20    1
    57    58    59    1
    58    10     9    1
    59   210   211    1
    60    89    88    1
    61   194   197    1
    62   194   193    1
    63   197   198    1
    64    63    62    1
    65    75    77    1
    66    75    72    1
    67   186   185    2
    68    71    72    1
    69   124   123    2
    70    20    22    1
    71    20    21    1
    72   123   122    1
    73    59    62    1
    74    59    60    1
    75   193   185   am
    76   193   199    1
    77   185   184    1
    78     9    12    1
    79     9     8    1
    80    72    73    1
    81    88    87   ar
    82    88    86   ar
    83   125   126    1
    84   198   199    1
    85   187   184    1
    86   187   188    1
    87    61    60    2
    88    87    85   ar
    89    12    13    1
    90     8    14    1
    91    60    64   am
    92   129   126    1
    93   129   130    1
    94    86    84   ar
    95   122   121    1
    96   184   183    1
    97   126   127    1
    98   131   130   ar
    99   131   133   ar
   100    70    68    1
   101   188   190   ar
   102   188   189   ar
   103    73    74    2
   104   190   192   ar
   105   130   132   ar
   106   183   177   am
   107    14    13    1
   108    64    65    1
   109   182   180    1
   110   133   134   ar
   111    85    83   ar
   112   121   116   am
   113    84    83   ar
   114   189   191   ar
   115   132   134   ar
   116   127   128    2
   117   192   191   ar
   118   177   176    1
   119   177   178    2
   120    68    65    1
   121    68    69    1
   122    65    66    1
   123    83    82    1
   124     3     2    1
   125     3     4    2
   126   176   179    1
   127   176   175    1
   128   180   181    1
   129   180   179    1
   130   116   117    2
   131   116   115    1
   132     2     5    1
   133     2     1    1
   134     5     6    1
   135   119   118    1
   136    66    67    2
   137   115   118    1
   138   115   114    1
   139    82    79    1
   140   105   104    2
   141    78    79    1
   142     1     7    1
   143     6     7    1
   144    79    80    1
   145   118   120    1
   146   139   140    1
   147   139   136    1
   148   167   169   ar
   149   167   166   ar
   150   104   114   am
   151   104   103    1
   152   140   141    1
   153   169   170   ar
   154   106   103    1
   155   106   107    1
   156   149   151   ar
   157   149   147   ar
   158   165   166    1
   159   165   162    1
   160   166   168   ar
   161   164   163    2
   162   151   152   ar
   163   145   144    2
   164   142   143    1
   165    80    81    2
   166   103   102    1
   167   136   137    1
   168   136   135    1
   169   141   135    1
   170   170   168   ar
   171   170   172   ar
   172   137   138    2
   173   146   147    1
   174   146   143    1
   175   107   109   ar
   176   107   108   ar
   177   168   171   ar
   178   147   148   ar
   179   163   162    1
   180   143   144    1
   181   109   111   ar
   182   162   161    1
   183   144   153   am
   184   152   150   ar
   185   172   174   ar
   186   161   155   am
   187   108   110   ar
   188   171   173   ar
   189   148   150   ar
   190   111   112   ar
   191   153   154    1
   192   174   173   ar
   193   155   154    1
   194   155   156    2
   195   154   157    1
   196   110   112   ar
   197    97    99   ar
   198    97    95   ar
   199   112   113    1
   200    94    95    1
   201    94    91    1
   202    99   100   ar
   203   160   158    1
   204    90    91    1
   205    95    96   ar
   206    91    92    1
   207   157   158    1
   208   100   101    1
   209   100    98   ar
   210   158   159    1
   211    96    98   ar
   212    92    93    2
