@<TRIPOS>MOLECULE
tmp/3dm5A00.pdb
 138 131 0 0 0
SMALL
GASTEIGER

@<TRIPOS>ATOM
      1  N         19.2730  -37.1470   48.1200 N.3   108  ILE108     -0.1231
      2  CA        19.5390  -37.5870   49.4820 C.3   108  ILE108      0.1692
      3  C         20.1670  -38.9750   49.4970 C.2   108  ILE108      0.2592
      4  O         20.1800  -39.6570   48.4700 O.2   108  ILE108     -0.2718
      5  CB        18.2730  -37.5260   50.3530 C.3   108  ILE108      0.0266
      6  CG1       17.4420  -38.7910   50.2290 C.3   108  ILE108      0.0019
      7  CG2       17.4150  -36.3600   49.9500 C.3   108  ILE108      0.0020
      8  CD1       16.0040  -38.5080   50.5530 C.3   108  ILE108      0.0001
      9  N         20.7270  -39.3650   50.6450 N.am  109  GLN109     -0.1966
     10  CA        21.3460  -40.6850   50.7900 C.3   109  GLN109      0.1733
     11  C         20.3660  -41.7900   50.3880 C.2   109  GLN109      0.2617
     12  O         19.1920  -41.7660   50.7650 O.2   109  GLN109     -0.2715
     13  CB        21.8550  -40.9190   52.2230 C.3   109  GLN109      0.0408
     14  CG        22.5730  -42.2450   52.3900 C.3   109  GLN109      0.0908
     15  CD        22.8220  -42.5810   53.8470 C.2   109  GLN109      0.2608
     16  OE1       22.1060  -42.1560   54.7610 O.2   109  GLN109     -0.2717
     17  NE2       23.8500  -43.4020   54.0650 N.am  109  GLN109     -0.0878
     18  N         20.8470  -42.7470   49.6000 N.am  110  GLY110     -0.1940
     19  CA        19.9980  -43.8310   49.1200 C.3   110  GLY110      0.2014
     20  C         18.9650  -43.4540   48.0630 C.2   110  GLY110      0.2640
     21  O         17.9550  -44.1300   47.8820 O.2   110  GLY110     -0.2714
     22  N         19.2080  -42.3630   47.3580 N.am  111  SER111     -0.1935
     23  CA        18.3620  -42.0320   46.2330 C.3   111  SER111      0.2055
     24  C         18.8920  -42.7720   45.0350 C.2   111  SER111      0.2644
     25  O         18.2060  -42.9020   44.0380 O.2   111  SER111     -0.2714
     26  CB        18.3940  -40.5350   45.9510 C.3   111  SER111      0.2130
     27  OG        19.7210  -40.0690   45.7530 O.3   111  SER111     -0.2179
     28  N         20.1260  -43.2420   45.1370 N.am  112  GLY112     -0.1939
     29  CA        20.8110  -43.8290   44.0080 C.3   112  GLY112      0.2014
     30  C         21.5490  -42.7830   43.1830 C.2   112  GLY112      0.2639
     31  O         21.8290  -43.0170   42.0080 O.2   112  GLY112     -0.2714
     32  N         21.8670  -41.6380   43.7890 N.am  113  LYS113     -0.1963
     33  CA        22.5720  -40.5420   43.1060 C.3   113  LYS113      0.1728
     34  C         23.9800  -40.9140   42.6150 C.2   113  LYS113      0.2617
     35  O         24.2940  -40.7550   41.4290 O.2   113  LYS113     -0.2715
     36  CB        22.6810  -39.3310   44.0220 C.3   113  LYS113      0.0311
     37  CG        23.3300  -38.1390   43.3780 C.3   113  LYS113      0.0038
     38  CD        23.4410  -36.9980   44.3630 C.3   113  LYS113      0.0206
     39  CE        24.7110  -37.0830   45.2140 C.3   113  LYS113      0.1093
     40  NZ        24.6970  -38.1860   46.2010 N.3   113  LYS113     -0.1314
     41  N         24.8420  -41.3850   43.5180 N.am  114  THR114     -0.1937
     42  CA        26.1840  -41.7810   43.1030 C.3   114  THR114      0.2028
     43  C         26.1050  -42.6470   41.8320 C.2   114  THR114      0.2643
     44  O         26.7180  -42.3200   40.7960 O.2   114  THR114     -0.2714
     45  CB        26.9520  -42.5650   44.1960 C.3   114  THR114      0.1808
     46  OG1       26.7830  -41.9510   45.4790 O.3   114  THR114     -0.2208
     47  CG2       28.4110  -42.6030   43.8740 C.3   114  THR114      0.0379
     48  N         25.3380  -43.7410   41.9130 N.am  115  THR115     -0.1936
     49  CA        25.1820  -44.6610   40.7850 C.3   115  THR115      0.2028
     50  C         24.6460  -43.9510   39.5430 C.2   115  THR115      0.2642
     51  O         25.1560  -44.1240   38.4340 O.2   115  THR115     -0.2714
     52  CB        24.2270  -45.8320   41.1290 C.3   115  THR115      0.1808
     53  OG1       24.6190  -46.4330   42.3730 O.3   115  THR115     -0.2208
     54  CG2       24.2630  -46.8790   40.0320 C.3   115  THR115      0.0379
     55  N         23.5940  -43.1600   39.7200 N.am  116  THR116     -0.1950
     56  CA        23.0710  -42.4030   38.6010 C.3   116  THR116      0.1897
     57  C         24.1330  -41.4760   37.9650 C.2   116  THR116      0.2313
     58  O         24.0940  -41.2170   36.7630 O.2   116  THR116     -0.2863
     59  CB        21.8210  -41.6140   38.9970 C.3   116  THR116      0.1794
     60  OG1       20.9160  -42.4730   39.6980 O.3   116  THR116     -0.2208
     61  CG2       21.1370  -41.0130   37.7600 C.3   116  THR116      0.0378
     62  N         25.9620  -43.7160   35.6040 N.3   119  LYS119     -0.1245
     63  CA        25.0960  -44.1020   34.5100 C.3   119  LYS119      0.1561
     64  C         25.0010  -43.0120   33.4590 C.2   119  LYS119      0.2260
     65  O         25.1010  -43.2820   32.2490 O.2   119  LYS119     -0.2867
     66  CB        23.6910  -44.4520   35.0230 C.3   119  LYS119      0.0271
     67  CG        23.6200  -45.7170   35.8700 C.3   119  LYS119      0.0035
     68  CD        22.2130  -45.9000   36.3680 C.3   119  LYS119      0.0206
     69  CE        22.0320  -47.1320   37.2330 C.3   119  LYS119      0.1093
     70  NZ        20.5610  -47.3720   37.4000 N.3   119  LYS119     -0.1314
     71  N         29.6010  -38.3590   52.2230 N.3   140  ARG140     -0.1245
     72  CA        30.0440  -39.7490   52.2880 C.3   140  ARG140      0.1563
     73  C         31.1540  -39.9430   51.2600 C.2   140  ARG140      0.2260
     74  O         30.9140  -40.4600   50.1680 O.2   140  ARG140     -0.2867
     75  CB        28.8910  -40.7320   52.0490 C.3   140  ARG140      0.0307
     76  CG        27.7780  -40.2420   51.1000 C.3   140  ARG140      0.0489
     77  CD        27.0370  -41.4300   50.4660 C.3   140  ARG140      0.2205
     78  NE        27.9990  -42.4620   50.0770 N.pl3 140  ARG140     -0.0865
     79  CZ        27.8200  -43.3560   49.1070 C.cat 140  ARG140      0.5346
     80  NH1       26.7000  -43.3710   48.3920 N.pl3 140  ARG140      0.1354
     81  NH2       28.7790  -44.2330   48.8500 N.pl3 140  ARG140      0.1354
     82  N         33.6490  -45.2740   45.0400 N.3   146  GLN146     -0.1245
     83  CA        32.5340  -45.8950   44.3240 C.3   146  GLN146      0.1566
     84  C         32.4410  -45.4670   42.8550 C.2   146  GLN146      0.2260
     85  O         32.1320  -46.2710   41.9780 O.2   146  GLN146     -0.2867
     86  CB        31.2240  -45.6090   45.0330 C.3   146  GLN146      0.0367
     87  CG        30.0180  -46.1030   44.2760 C.3   146  GLN146      0.0905
     88  CD        28.7420  -45.9110   45.0660 C.2   146  GLN146      0.2608
     89  OE1       28.7770  -45.5030   46.2240 O.2   146  GLN146     -0.2717
     90  NE2       27.6070  -46.2060   44.4440 N.am  146  GLN146     -0.0878
     91  N         14.8730  -43.0290   40.0920 N.3   247  THR247     -0.1203
     92  CA        15.6140  -44.2930   40.1100 C.3   247  THR247      0.1994
     93  C         14.7700  -45.4530   40.6380 C.2   247  THR247      0.2617
     94  O         13.6810  -45.2380   41.1800 O.2   247  THR247     -0.2717
     95  CB        16.8600  -44.2220   40.9930 C.3   247  THR247      0.1784
     96  OG1       16.4660  -43.8400   42.3150 O.3   247  THR247     -0.2211
     97  CG2       17.8590  -43.2400   40.4360 C.3   247  THR247      0.0376
     98  N         15.3020  -46.6690   40.4810 N.am  248  LYS248     -0.1979
     99  CA        14.7510  -47.8550   41.1080 C.3   248  LYS248      0.1596
    100  C         13.3090  -48.0960   40.6680 C.2   248  LYS248      0.2287
    101  O         12.4600  -48.4540   41.4910 O.2   248  LYS248     -0.2864
    102  CB        14.8250  -47.7230   42.6300 C.3   248  LYS248      0.0298
    103  CG        16.2180  -47.4660   43.1320 C.3   248  LYS248      0.0038
    104  CD        16.2570  -47.2950   44.6420 C.3   248  LYS248      0.0206
    105  CE        17.7030  -47.1480   45.1480 C.3   248  LYS248      0.1093
    106  NZ        17.7680  -46.8710   46.6310 N.3   248  LYS248     -0.1314
    107  N         12.6500  -50.3730   38.5470 N.3   250  ASP250     -0.1239
    108  CA        12.6580  -51.8020   38.2880 C.3   250  ASP250      0.1674
    109  C         12.0830  -52.6220   39.4360 C.2   250  ASP250      0.2266
    110  O         12.6180  -52.6150   40.5450 O.2   250  ASP250     -0.2867
    111  CB        14.0700  -52.2900   37.9560 C.3   250  ASP250      0.1410
    112  CG        15.1100  -51.8120   38.9540 C.2   250  ASP250      0.3668
    113  OD1       15.1310  -50.6000   39.2630 O.co2 250  ASP250     -0.2456
    114  OD2       15.9210  -52.6540   39.4020 O.co2 250  ASP250     -0.2456
    115  N         16.1180  -44.6200   36.2470 N.3   273  GLY273     -0.1210
    116  CA        17.0060  -45.7150   36.5990 C.3   273  GLY273      0.1956
    117  C         16.2590  -47.0430   36.6860 C.2   273  GLY273      0.2613
    118  O         15.1220  -47.1150   37.1500 O.2   273  GLY273     -0.2717
    119  N         16.9400  -48.1080   36.2920 N.am  274  THR274     -0.1938
    120  CA        16.2980  -49.3460   35.8800 C.3   274  THR274      0.2028
    121  C         16.9630  -50.5620   36.5170 C.2   274  THR274      0.2643
    122  O         16.5490  -51.7010   36.3230 O.2   274  THR274     -0.2714
    123  CB        16.3430  -49.4030   34.3500 C.3   274  THR274      0.1808
    124  OG1       15.2520  -48.6280   33.8420 O.3   274  THR274     -0.2208
    125  CG2       16.2370  -50.7920   33.8350 C.3   274  THR274      0.0379
    126  N         17.9980  -50.3160   37.3000 N.am  275  GLY275     -0.1939
    127  CA        18.6420  -51.3910   38.0100 C.3   275  GLY275      0.2014
    128  C         19.9910  -50.9520   38.5080 C.2   275  GLY275      0.2638
    129  O         20.3650  -49.7970   38.3770 O.2   275  GLY275     -0.2714
    130  N         20.7350  -51.8980   39.0560 N.am  276  GLU276     -0.1977
    131  CA        21.9710  -51.5740   39.7520 C.3   276  GLU276      0.1602
    132  C         23.1900  -51.3670   38.8520 C.2   276  GLU276      0.2287
    133  O         24.0850  -50.6140   39.2010 O.2   276  GLU276     -0.2864
    134  CB        22.2510  -52.6200   40.8280 C.3   276  GLU276      0.0415
    135  CG        21.1410  -52.7110   41.8620 C.3   276  GLU276      0.1163
    136  CD        21.6700  -53.1070   43.2260 C.2   276  GLU276      0.3649
    137  OE1       22.9010  -53.0990   43.4020 O.co2 276  GLU276     -0.2457
    138  OE2       20.8690  -53.4070   44.1280 O.co2 276  GLU276     -0.2457
@<TRIPOS>BOND
     1    65    64    2
     2    64    63    1
     3   125   123    1
     4   124   123    1
     5   123   120    1
     6    63    66    1
     7    63    62    1
     8    66    67    1
     9    67    68    1
    10   120   119    1
    11   120   121    1
    12   115   116    1
    13   119   117   am
    14   122   121    2
    15    68    69    1
    16   121   126   am
    17   116   117    1
    18   117   118    2
    19    58    57    2
    20    69    70    1
    21   126   127    1
    22    61    59    1
    23   111   108    1
    24   111   112    1
    25    57    56    1
    26   127   128    1
    27   108   107    1
    28   108   109    1
    29   129   128    2
    30    51    50    2
    31   128   130   am
    32    56    59    1
    33    56    55    1
    34   132   133    2
    35   132   131    1
    36   112   113   ar
    37   112   114   ar
    38    59    60    1
    39   130   131    1
    40   109   110    2
    41    50    55   am
    42    50    49    1
    43   131   134    1
    44    54    52    1
    45    91    92    1
    46    92    93    1
    47    92    95    1
    48    97    95    1
    49    98    93   am
    50    98    99    1
    51    93    94    2
    52   100    99    1
    53   100   101    2
    54    49    52    1
    55    49    48    1
    56    44    43    2
    57   134   135    1
    58    95    96    1
    59    99   102    1
    60    52    53    1
    61    35    34    2
    62    43    48   am
    63    43    42    1
    64   135   136    1
    65    85    84    2
    66    31    30    2
    67    34    33    1
    68    34    41   am
    69   102   103    1
    70    84    83    1
    71    42    41    1
    72    42    45    1
    73    33    32    1
    74    33    36    1
    75   103   104    1
    76    30    32   am
    77    30    29    1
    78   136   137   ar
    79   136   138   ar
    80    37    36    1
    81    37    38    1
    82    47    45    1
    83    29    28    1
    84    25    24    2
    85    45    46    1
    86    87    86    1
    87    87    88    1
    88    83    86    1
    89    83    82    1
    90    38    39    1
    91    90    88   am
    92   104   105    1
    93    24    28   am
    94    24    23    1
    95    88    89    2
    96   105   106    1
    97    39    40    1
    98    27    26    1
    99    26    23    1
   100    23    22    1
   101    22    20   am
   102    21    20    2
   103    20    19    1
   104     1     2    1
   105    80    79    1
   106     4     3    2
   107    81    79    1
   108    79    78    2
   109    19    18    1
   110     2     3    1
   111     2     5    1
   112     3     9   am
   113    18    11   am
   114     7     5    1
   115    78    77    1
   116    74    73    2
   117     6     5    1
   118     6     8    1
   119    11    12    2
   120    11    10    1
   121    77    76    1
   122     9    10    1
   123    10    13    1
   124    76    75    1
   125    73    72    1
   126    75    72    1
   127    13    14    1
   128    71    72    1
   129    14    15    1
   130    15    17   am
   131    15    16    2
