@<TRIPOS>MOLECULE
tmp/3dm9A00.pdb
 84 79 0 0 0
SMALL
GASTEIGER

@<TRIPOS>ATOM
      1  N         69.3430   69.2750   18.9820 N.3    44  LEU44      -0.1245
      2  CA        69.9870   68.0250   19.3720 C.3    44  LEU44       0.1561
      3  C         69.8800   67.7960   20.8890 C.2    44  LEU44       0.2260
      4  O         69.6340   66.6730   21.3250 O.2    44  LEU44      -0.2867
      5  CB        71.4600   67.9810   18.9070 C.3    44  LEU44       0.0270
      6  CG        71.6870   67.7980   17.3960 C.3    44  LEU44       0.0019
      7  CD1       73.1670   67.7720   17.0350 C.3    44  LEU44       0.0001
      8  CD2       71.0260   66.5330   16.8890 C.3    44  LEU44       0.0001
      9  N         66.3370   66.4510   22.0990 N.3    47  ASP47      -0.1225
     10  CA        65.9020   65.1420   21.5820 C.3    47  ASP47       0.1805
     11  C         65.3940   65.1650   20.1500 C.2    47  ASP47       0.2598
     12  O         64.6720   64.2590   19.7610 O.2    47  ASP47      -0.2718
     13  CB        64.7930   64.4810   22.4310 C.3    47  ASP47       0.1424
     14  CG        65.0650   64.5190   23.9300 C.2    47  ASP47       0.3668
     15  OD1       66.2350   64.3470   24.3410 O.co2  47  ASP47      -0.2456
     16  OD2       64.0820   64.6950   24.6970 O.co2  47  ASP47      -0.2456
     17  N         65.7200   66.1840   19.3630 N.am   48  VAL48      -0.1966
     18  CA        65.2870   66.1500   17.9650 C.3    48  VAL48       0.1727
     19  C         66.2590   65.2650   17.1830 C.2    48  VAL48       0.2616
     20  O         67.4690   65.3910   17.3140 O.2    48  VAL48      -0.2715
     21  CB        65.1730   67.5680   17.3280 C.3    48  VAL48       0.0290
     22  CG1       64.7560   67.4710   15.8530 C.3    48  VAL48       0.0023
     23  CG2       64.1740   68.4460   18.1110 C.3    48  VAL48       0.0023
     24  N         65.7280   64.3540   16.3830 N.am   49  ALA49      -0.1963
     25  CA        66.5790   63.4690   15.6000 C.3    49  ALA49       0.1728
     26  C         67.2980   64.2650   14.5140 C.2    49  ALA49       0.2616
     27  O         66.7370   65.1990   13.9500 O.2    49  ALA49      -0.2715
     28  CB        65.7560   62.3530   14.9780 C.3    49  ALA49       0.0334
     29  N         68.5350   63.8700   14.2270 N.am   50  LEU50      -0.1963
     30  CA        69.3720   64.5170   13.2260 C.3    50  LEU50       0.1728
     31  C         68.6900   64.6940   11.8720 C.2    50  LEU50       0.2616
     32  O         68.7690   65.7640   11.2650 O.2    50  LEU50      -0.2715
     33  CB        70.6830   63.7340   13.0250 C.3    50  LEU50       0.0311
     34  CG        71.5410   64.4250   11.9590 C.3    50  LEU50       0.0022
     35  CD1       71.9320   65.8150   12.4380 C.3    50  LEU50       0.0001
     36  CD2       72.7510   63.6100   11.5450 C.3    50  LEU50       0.0001
     37  N         68.0160   63.6610   11.3890 N.am   51  GLU51      -0.1977
     38  CA        67.4070   63.7860   10.0720 C.3    51  GLU51       0.1602
     39  C         66.2760   64.8020   10.0820 C.2    51  GLU51       0.2287
     40  O         65.9770   65.4080    9.0570 O.2    51  GLU51      -0.2864
     41  CB        66.9830   62.4310    9.4910 C.3    51  GLU51       0.0415
     42  CG        65.7730   61.8020   10.1010 C.3    51  GLU51       0.1163
     43  CD        65.2290   60.6680    9.2360 C.2    51  GLU51       0.3649
     44  OE1       64.9360   60.9060    8.0410 O.co2  51  GLU51      -0.2457
     45  OE2       65.0920   59.5380    9.7480 O.co2  51  GLU51      -0.2457
     46  N         61.6900   61.0460   26.3090 N.3   231  GLY231     -0.1210
     47  CA        62.2200   61.7250   25.1370 C.3   231  GLY231      0.1956
     48  C         63.3850   61.0200   24.4690 C.2   231  GLY231      0.2611
     49  O         63.3660   60.7630   23.2700 O.2   231  GLY231     -0.2717
     50  N         64.4040   60.7010   25.2530 N.am  232  ASN232     -0.1974
     51  CA        65.6360   60.1100   24.7290 C.3   232  ASN232      0.1688
     52  C         65.5030   58.6570   24.2530 C.2   232  ASN232      0.2292
     53  O         66.5100   58.0170   23.9280 O.2   232  ASN232     -0.2864
     54  CB        66.6970   60.1560   25.8210 C.3   232  ASN232      0.1181
     55  CG        66.1680   59.6500   27.1450 C.2   232  ASN232      0.2629
     56  OD1       65.3980   60.3380   27.8240 O.2   232  ASN232     -0.2716
     57  ND2       66.5490   58.4300   27.5070 N.am  232  ASN232     -0.0877
     58  N         62.0790   57.1550   19.9820 N.3   235  VAL235     -0.1231
     59  CA        62.4390   57.0600   18.5660 C.3   235  VAL235      0.1692
     60  C         63.2820   55.8150   18.3010 C.2   235  VAL235      0.2591
     61  O         63.0370   55.0730   17.3450 O.2   235  VAL235     -0.2718
     62  CB        63.1630   58.3330   18.0460 C.3   235  VAL235      0.0266
     63  CG1       63.6020   58.1490   16.5950 C.3   235  VAL235      0.0020
     64  CG2       62.2510   59.5330   18.1650 C.3   235  VAL235      0.0020
     65  N         64.2650   55.5660   19.1560 N.am  236  GLU236     -0.1979
     66  CA        65.0490   54.3460   19.0120 C.3   236  GLU236      0.1602
     67  C         64.1660   53.1070   19.2840 C.2   236  GLU236      0.2287
     68  O         64.2790   52.0990   18.5870 O.2   236  GLU236     -0.2864
     69  CB        66.3250   54.3940   19.8780 C.3   236  GLU236      0.0415
     70  CG        67.3240   53.2600   19.6330 C.3   236  GLU236      0.1163
     71  CD        67.5940   52.9810   18.1500 C.2   236  GLU236      0.3649
     72  OE1       67.8160   53.9370   17.3640 O.co2 236  GLU236     -0.2457
     73  OE2       67.5900   51.7870   17.7760 O.co2 236  GLU236     -0.2457
     74  N         62.2750   52.4720   16.1530 N.3   239  ARG239     -0.1245
     75  CA        63.2070   51.9420   15.1470 C.3   239  ARG239      0.1563
     76  C         63.4030   50.4400   15.2700 C.2   239  ARG239      0.2260
     77  O         63.3530   49.7160   14.2680 O.2   239  ARG239     -0.2867
     78  CB        64.5680   52.6100   15.2570 C.3   239  ARG239      0.0307
     79  CG        64.6650   53.9880   14.6260 C.3   239  ARG239      0.0489
     80  CD        66.1370   54.2830   14.3050 C.3   239  ARG239      0.2205
     81  NE        66.3200   55.6680   13.9100 N.pl3 239  ARG239     -0.0865
     82  CZ        66.6610   56.6360   14.7490 C.cat 239  ARG239      0.5346
     83  NH1       66.8810   56.3650   16.0300 N.pl3 239  ARG239      0.1354
     84  NH2       66.7910   57.8740   14.3030 N.pl3 239  ARG239      0.1354
@<TRIPOS>BOND
     1    44    43   ar
     2    40    39    2
     3    43    45   ar
     4    43    42    1
     5    41    38    1
     6    41    42    1
     7    38    39    1
     8    38    37    1
     9    32    31    2
    10    37    31   am
    11    36    34    1
    12    31    30    1
    13    34    35    1
    14    34    33    1
    15    33    30    1
    16    30    29    1
    17    81    80    1
    18    81    82    2
    19    27    26    2
    20    29    26   am
    21    77    76    2
    22    84    82    1
    23    80    79    1
    24    26    25    1
    25    79    78    1
    26    82    83    1
    27    28    25    1
    28    75    78    1
    29    75    76    1
    30    75    74    1
    31    25    24    1
    32    22    21    1
    33    24    19   am
    34    63    62    1
    35     8     6    1
    36     7     6    1
    37    19    20    2
    38    19    18    1
    39    21    18    1
    40    21    23    1
    41    61    60    2
    42    72    71   ar
    43     6     5    1
    44    73    71   ar
    45    18    17    1
    46    62    64    1
    47    62    59    1
    48    71    70    1
    49    60    59    1
    50    60    65   am
    51    59    58    1
    52    68    67    2
    53     5     2    1
    54     1     2    1
    55    66    65    1
    56    66    67    1
    57    66    69    1
    58    17    11   am
    59     2     3    1
    60    70    69    1
    61    12    11    2
    62    11    10    1
    63     3     4    2
    64    10     9    1
    65    10    13    1
    66    13    14    1
    67    49    48    2
    68    53    52    2
    69    14    15   ar
    70    14    16   ar
    71    52    51    1
    72    48    47    1
    73    48    50   am
    74    51    50    1
    75    51    54    1
    76    47    46    1
    77    54    55    1
    78    55    57   am
    79    55    56    2
