@<TRIPOS>MOLECULE
tmp/3dmeB02.pdb
 90 86 0 0 0
SMALL
GASTEIGER

@<TRIPOS>ATOM
      1  N         38.6330   26.9210   19.1550 N.3    46  SER46      -0.1217
      2  CA        39.6160   26.1730   18.3430 C.3    46  SER46       0.1889
      3  C         40.3460   25.0760   19.1290 C.2    46  SER46       0.2288
      4  O         40.9780   24.1880   18.5390 O.2    46  SER46      -0.2866
      5  CB        40.6530   27.1370   17.7510 C.3    46  SER46       0.2089
      6  OG        40.0160   28.1700   17.0030 O.3    46  SER46      -0.2183
      7  N         47.7950   28.0900   23.1830 N.3    50  HIS50      -0.1241
      8  CA        48.5680   29.1390   22.5340 C.3    50  HIS50       0.1621
      9  C         49.9130   29.3300   23.1890 C.2    50  HIS50       0.2264
     10  O         50.0450   29.1590   24.3920 O.2    50  HIS50      -0.2867
     11  CB        47.7980   30.4570   22.5410 C.3    50  HIS50       0.0745
     12  CG        46.6950   30.4920   21.5420 C.ar   50  HIS50       0.0817
     13  ND1       46.9290   30.5510   20.1820 N.ar   50  HIS50      -0.2268
     14  CD2       45.3520   30.4350   21.6950 C.ar   50  HIS50       0.1154
     15  CE1       45.7730   30.5470   19.5430 C.ar   50  HIS50       0.1986
     16  NE2       44.8000   30.4740   20.4360 N.ar   50  HIS50      -0.2212
     17  N         33.4610   28.5420   11.6720 N.3   232  TYR232     -0.1241
     18  CA        34.4480   27.5480   11.2540 C.3   232  TYR232      0.1605
     19  C         33.8750   26.6600   10.1690 C.2   232  TYR232      0.2264
     20  O         32.6820   26.3350   10.1760 O.2   232  TYR232     -0.2867
     21  CB        34.8010   26.5980   12.3950 C.3   232  TYR232      0.0534
     22  CG        35.5000   27.1870   13.5770 C.ar  232  TYR232     -0.0201
     23  CD1       36.8880   27.1300   13.6810 C.ar  232  TYR232     -0.0009
     24  CD2       34.7810   27.7590   14.6180 C.ar  232  TYR232     -0.0009
     25  CE1       37.5470   27.6400   14.7780 C.ar  232  TYR232      0.0417
     26  CE2       35.4350   28.2650   15.7400 C.ar  232  TYR232      0.0417
     27  CZ        36.8180   28.2040   15.8050 C.ar  232  TYR232      0.1957
     28  OH        37.4940   28.7020   16.8850 O.3   232  TYR232     -0.2866
     29  N         48.9300   29.4890   10.7350 N.3   246  TYR246     -0.1241
     30  CA        48.3360   30.8180   10.9040 C.3   246  TYR246      0.1605
     31  C         49.0060   31.7870    9.9350 C.2   246  TYR246      0.2264
     32  O         50.2310   31.8440    9.8480 O.2   246  TYR246     -0.2867
     33  CB        48.5980   31.3360   12.3130 C.3   246  TYR246      0.0534
     34  CG        47.7140   30.7950   13.4070 C.ar  246  TYR246     -0.0201
     35  CD1       47.1170   31.6600   14.3180 C.ar  246  TYR246     -0.0009
     36  CD2       47.4780   29.4260   13.5510 C.ar  246  TYR246     -0.0009
     37  CE1       46.3000   31.1770   15.3420 C.ar  246  TYR246      0.0417
     38  CE2       46.6670   28.9380   14.5800 C.ar  246  TYR246      0.0417
     39  CZ        46.0840   29.8240   15.4710 C.ar  246  TYR246      0.1957
     40  OH        45.2760   29.3620   16.5000 O.3   246  TYR246     -0.2866
     41  N         42.7830   30.8010    9.8890 N.3   257  HIS257     -0.1241
     42  CA        43.6430   29.8150   10.5400 C.3   257  HIS257      0.1621
     43  C         43.2650   28.4270   10.0660 C.2   257  HIS257      0.2264
     44  O         42.0930   28.1400    9.8440 O.2   257  HIS257     -0.2867
     45  CB        43.4490   29.8480   12.0610 C.3   257  HIS257      0.0745
     46  CG        43.6510   31.1970   12.6740 C.ar  257  HIS257      0.0817
     47  ND1       43.2000   31.5070   13.9410 N.ar  257  HIS257     -0.2268
     48  CD2       44.2460   32.3140   12.2000 C.ar  257  HIS257      0.1154
     49  CE1       43.5170   32.7580   14.2230 C.ar  257  HIS257      0.1986
     50  NE2       44.1570   33.2690   13.1850 N.ar  257  HIS257     -0.2212
     51  N         38.4870   30.7620   13.0720 N.3   270  PRO270     -0.2116
     52  CA        37.1850   31.3790   12.8510 C.3   270  PRO270      0.1372
     53  C         37.2910   32.7270   12.1750 C.2   270  PRO270      0.2244
     54  O         38.3430   33.3590   12.2360 O.2   270  PRO270     -0.2868
     55  CB        36.6830   31.6040   14.2830 C.3   270  PRO270      0.0268
     56  CG        37.9440   31.8730   15.0600 C.3   270  PRO270      0.0207
     57  CD        38.9540   30.9280   14.4670 C.3   270  PRO270      0.0892
     58  N         35.3570   36.7380   11.6720 N.3   272  THR272     -0.1218
     59  CA        34.9250   37.7520   12.6400 C.3   272  THR272      0.1862
     60  C         33.6510   38.4360   12.1640 C.2   272  THR272      0.2287
     61  O         33.5860   38.9310   11.0400 O.2   272  THR272     -0.2866
     62  CB        36.0050   38.8390   12.8510 C.3   272  THR272      0.1770
     63  OG1       36.2980   39.4610   11.6010 O.3   272  THR272     -0.2211
     64  CG2       37.2590   38.2330   13.3490 C.3   272  THR272      0.0375
     65  N         32.7430   35.3380   20.7750 N.3   314  ARG314     -0.1245
     66  CA        33.7420   35.9030   21.6830 C.3   314  ARG314      0.1563
     67  C         33.1350   36.9710   22.5940 C.2   314  ARG314      0.2260
     68  O         32.4110   37.8510   22.1020 O.2   314  ARG314     -0.2867
     69  CB        34.8590   36.5580   20.8750 C.3   314  ARG314      0.0307
     70  CG        35.4540   35.7130   19.7500 C.3   314  ARG314      0.0489
     71  CD        36.3940   36.5970   18.9340 C.3   314  ARG314      0.2205
     72  NE        37.0350   35.8750   17.8330 N.pl3 314  ARG314     -0.0865
     73  CZ        36.4860   35.6550   16.6430 C.cat 314  ARG314      0.5346
     74  NH1       35.2440   36.0560   16.3810 N.pl3 314  ARG314      0.1354
     75  NH2       37.1810   35.0120   15.7060 N.pl3 314  ARG314      0.1354
     76  N         38.1550   36.2280   26.2380 N.3   347  GLU347     -0.1231
     77  CA        38.1240   35.5930   24.9360 C.3   347  GLU347      0.1699
     78  C         39.4380   34.8300   24.8000 C.2   347  GLU347      0.2592
     79  O         40.0810   34.5330   25.7980 O.2   347  GLU347     -0.2718
     80  CB        37.9780   36.6340   23.8140 C.3   347  GLU347      0.0402
     81  CG        39.0860   37.7180   23.8120 C.3   347  GLU347      0.1161
     82  CD        39.0930   38.5650   22.5340 C.2   347  GLU347      0.3649
     83  OE1       38.5000   38.1430   21.5220 O.co2 347  GLU347     -0.2457
     84  OE2       39.7050   39.6530   22.5600 O.co2 347  GLU347     -0.2457
     85  N         39.8210   34.4820   23.5760 N.am  348  SER348     -0.1952
     86  CA        41.1230   33.8390   23.3810 C.3   348  SER348      0.1924
     87  C         42.2310   34.7450   23.9170 C.2   348  SER348      0.2314
     88  O         42.2140   35.9570   23.6780 O.2   348  SER348     -0.2863
     89  CB        41.3390   33.5600   21.8970 C.3   348  SER348      0.2116
     90  OG        42.5080   32.7770   21.7110 O.3   348  SER348     -0.2180
@<TRIPOS>BOND
     1    44    43    2
     2    32    31    2
     3    41    42    1
     4    31    30    1
     5    43    42    1
     6    19    20    2
     7    19    18    1
     8    42    45    1
     9    29    30    1
    10    30    33    1
    11    61    60    2
    12    18    17    1
    13    18    21    1
    14    63    62    1
    15    58    59    1
    16    45    46    1
    17    60    59    1
    18    53    54    2
    19    53    52    1
    20    48    46   ar
    21    48    50   ar
    22    33    34    1
    23    21    22    1
    24    59    62    1
    25    46    47   ar
    26    52    51    1
    27    52    55    1
    28    62    64    1
    29    51    57    1
    30    50    49   ar
    31    34    36   ar
    32    34    35   ar
    33    36    38   ar
    34    22    23   ar
    35    22    24   ar
    36    23    25   ar
    37    47    49   ar
    38    55    56    1
    39    35    37   ar
    40    57    56    1
    41    38    39   ar
    42    24    26   ar
    43    25    27   ar
    44    37    39   ar
    45    39    40    1
    46    75    73    1
    47    26    27   ar
    48    27    28    1
    49    74    73    1
    50    73    72    2
    51     6     5    1
    52     5     2    1
    53    72    71    1
    54     2     3    1
    55     2     1    1
    56     4     3    2
    57    71    70    1
    58    15    13   ar
    59    15    16   ar
    60    70    69    1
    61    13    12   ar
    62    16    14   ar
    63    65    66    1
    64    69    66    1
    65    83    82   ar
    66    12    14   ar
    67    12    11    1
    68    66    67    1
    69    90    89    1
    70    89    86    1
    71    68    67    2
    72     8    11    1
    73     8     7    1
    74     8     9    1
    75    82    84   ar
    76    82    81    1
    77     9    10    2
    78    86    85    1
    79    86    87    1
    80    85    78   am
    81    88    87    2
    82    81    80    1
    83    80    77    1
    84    78    77    1
    85    78    79    2
    86    77    76    1
