@<TRIPOS>MOLECULE
tmp/3dmhA01.pdb
 107 102 0 0 0
SMALL
GASTEIGER

@<TRIPOS>ATOM
      1  N         24.4790   51.2920   16.4310 N.3   205  PHE205     -0.1241
      2  CA        24.9440   50.7440   17.7080 C.3   205  PHE205      0.1605
      3  C         23.7420   50.2930   18.5360 C.2   205  PHE205      0.2264
      4  O         22.7430   51.0190   18.6560 O.2   205  PHE205     -0.2867
      5  CB        25.7220   51.8010   18.4880 C.3   205  PHE205      0.0534
      6  CG        26.1050   51.3590   19.8700 C.ar  205  PHE205     -0.0203
      7  CD1       27.1510   50.4700   20.0460 C.ar  205  PHE205     -0.0042
      8  CD2       25.4200   51.8360   20.9950 C.ar  205  PHE205     -0.0042
      9  CE1       27.5200   50.0450   21.3300 C.ar  205  PHE205     -0.0003
     10  CE2       25.7790   51.4280   22.2830 C.ar  205  PHE205     -0.0003
     11  CZ        26.8370   50.5270   22.4380 C.ar  205  PHE205     -0.0000
     12  N         21.2730   50.1280   25.2380 N.3   211  ASP211     -0.1239
     13  CA        22.5490   49.7940   25.8770 C.3   211  ASP211      0.1674
     14  C         22.4410   50.0140   27.3950 C.2   211  ASP211      0.2266
     15  O         22.0860   51.1030   27.8390 O.2   211  ASP211     -0.2867
     16  CB        23.6670   50.6760   25.2760 C.3   211  ASP211      0.1410
     17  CG        25.0620   50.3760   25.8510 C.2   211  ASP211      0.3668
     18  OD1       25.2070   49.5790   26.7950 O.co2 211  ASP211     -0.2456
     19  OD2       26.0370   50.9670   25.3350 O.co2 211  ASP211     -0.2456
     20  N         24.7020   50.6190   29.3520 N.3   213  ALA213     -0.1245
     21  CA        25.5740   51.7400   29.6990 C.3   213  ALA213      0.1562
     22  C         24.8340   53.0750   29.5910 C.2   213  ALA213      0.2260
     23  O         25.0190   53.9770   30.4250 O.2   213  ALA213     -0.2867
     24  CB        26.8270   51.7500   28.8070 C.3   213  ALA213      0.0290
     25  N         27.9780   58.4100   25.4050 N.3   303  ASN303     -0.1226
     26  CA        28.3800   57.0070   25.4850 C.3   303  ASN303      0.1770
     27  C         29.2860   56.8210   24.2510 C.2   303  ASN303      0.2439
     28  O         28.7780   56.5400   23.1570 O.2   303  ASN303     -0.2733
     29  CB        27.1200   56.1440   25.3980 C.3   303  ASN303      0.1168
     30  CG        27.4120   54.6570   25.4430 C.2   303  ASN303      0.2627
     31  OD1       28.5630   54.2440   25.5370 O.2   303  ASN303     -0.2716
     32  ND2       26.3520   53.8370   25.3690 N.am  303  ASN303     -0.0877
     33  N         30.6030   57.0600   24.3970 N.am  304  PRO304     -0.2729
     34  CA        31.4360   57.1220   23.1930 C.3   304  PRO304      0.1401
     35  C         31.6420   55.7860   22.4890 C.2   304  PRO304      0.2269
     36  O         31.4830   54.7060   23.1020 O.2   304  PRO304     -0.2865
     37  CB        32.7980   57.6250   23.6970 C.3   304  PRO304      0.0296
     38  CG        32.6270   57.9980   25.1030 C.3   304  PRO304      0.0237
     39  CD        31.3730   57.3470   25.6280 C.3   304  PRO304      0.0939
     40  N         33.8390   52.6640   20.9930 N.3   306  PHE306     -0.1241
     41  CA        34.9320   51.9490   21.6330 C.3   306  PHE306      0.1605
     42  C         35.3800   50.8150   20.7300 C.2   306  PHE306      0.2264
     43  O         34.6170   50.3430   19.8870 O.2   306  PHE306     -0.2867
     44  CB        34.5090   51.4350   23.0140 C.3   306  PHE306      0.0534
     45  CG        33.2800   50.5800   22.9930 C.ar  306  PHE306     -0.0203
     46  CD1       33.3850   49.1930   22.9320 C.ar  306  PHE306     -0.0042
     47  CD2       32.0120   51.1600   23.0350 C.ar  306  PHE306     -0.0042
     48  CE1       32.2420   48.3960   22.9090 C.ar  306  PHE306     -0.0003
     49  CE2       30.8690   50.3740   23.0100 C.ar  306  PHE306     -0.0003
     50  CZ        30.9810   48.9960   22.9410 C.ar  306  PHE306     -0.0000
     51  N         36.0250   47.1350   20.1080 N.3   308  VAL308     -0.1245
     52  CA        35.4250   45.9000   20.6370 C.3   308  VAL308      0.1561
     53  C         36.0840   45.3650   21.9070 C.2   308  VAL308      0.2260
     54  O         35.5420   45.5200   23.0140 O.2   308  VAL308     -0.2867
     55  CB        35.4620   44.7200   19.6380 C.3   308  VAL308      0.0252
     56  CG1       34.4550   43.6820   20.1360 C.3   308  VAL308      0.0019
     57  CG2       35.0290   45.2490   18.2710 C.3   308  VAL308      0.0019
     58  N         30.0000   57.6660   29.8420 N.3   337  VAL337     -0.1231
     59  CA        29.9160   56.2860   30.3330 C.3   337  VAL337      0.1692
     60  C         30.8070   55.3860   29.4850 C.2   337  VAL337      0.2593
     61  O         30.8540   55.5320   28.2550 O.2   337  VAL337     -0.2718
     62  CB        28.4460   55.7880   30.4050 C.3   337  VAL337      0.0266
     63  CG1       27.7910   55.7390   29.0210 C.3   337  VAL337      0.0020
     64  CG2       28.3520   54.4180   31.0950 C.3   337  VAL337      0.0020
     65  N         31.5260   54.4670   30.1460 N.am  338  SER338     -0.1938
     66  CA        32.3990   53.5580   29.4240 C.3   338  SER338      0.2055
     67  C         32.6490   52.2530   30.1720 C.2   338  SER338      0.2643
     68  O         32.2330   52.0840   31.3110 O.2   338  SER338     -0.2714
     69  CB        33.7430   54.2200   29.1300 C.3   338  SER338      0.2130
     70  OG        34.5860   54.2130   30.2530 O.3   338  SER338     -0.2179
     71  N         33.3400   51.3380   29.5060 N.am  339  ASN339     -0.1971
     72  CA        33.8640   50.1460   30.1640 C.3   339  ASN339      0.1688
     73  C         34.7230   50.5900   31.3580 C.2   339  ASN339      0.2292
     74  O         35.4370   51.5840   31.2610 O.2   339  ASN339     -0.2864
     75  CB        34.7000   49.3370   29.1710 C.3   339  ASN339      0.1181
     76  CG        35.3420   48.1280   29.8010 C.2   339  ASN339      0.2629
     77  OD1       36.4170   48.2200   30.4120 O.2   339  ASN339     -0.2716
     78  ND2       34.6820   46.9720   29.6760 N.am  339  ASN339     -0.0877
     79  N         38.7030   51.5230   30.7080 N.3   342  LEU342     -0.1245
     80  CA        39.2020   52.5080   29.7460 C.3   342  LEU342      0.1561
     81  C         39.6770   53.7570   30.4870 C.2   342  LEU342      0.2260
     82  O         38.9980   54.2650   31.3870 O.2   342  LEU342     -0.2867
     83  CB        38.1690   52.8340   28.6590 C.3   342  LEU342      0.0270
     84  CG        37.8580   51.7000   27.6740 C.3   342  LEU342      0.0019
     85  CD1       36.6800   52.0890   26.7880 C.3   342  LEU342      0.0001
     86  CD2       39.0930   51.3510   26.8310 C.3   342  LEU342      0.0001
     87  N         29.1200   47.3560   35.9520 N.3   362  GLU362     -0.1231
     88  CA        29.3500   46.7920   34.6260 C.3   362  GLU362      0.1699
     89  C         29.9860   47.8610   33.7430 C.2   362  GLU362      0.2592
     90  O         30.7990   47.5560   32.8710 O.2   362  GLU362     -0.2718
     91  CB        28.0680   46.2560   33.9800 C.3   362  GLU362      0.0402
     92  CG        28.3610   45.3400   32.7730 C.3   362  GLU362      0.1161
     93  CD        27.1220   44.7080   32.1270 C.2   362  GLU362      0.3649
     94  OE1       26.0200   45.3160   32.1490 O.co2 362  GLU362     -0.2457
     95  OE2       27.2710   43.5940   31.5700 O.co2 362  GLU362     -0.2457
     96  N         29.6010   49.1100   33.9960 N.am  363  TYR363     -0.1976
     97  CA        30.1930   50.2770   33.3420 C.3   363  TYR363      0.1639
     98  C         30.5090   51.3330   34.3850 C.2   363  TYR363      0.2290
     99  O         30.0700   51.2440   35.5410 O.2   363  TYR363     -0.2864
    100  CB        29.2410   50.8760   32.2970 C.3   363  TYR363      0.0560
    101  CG        28.7120   49.8420   31.3510 C.ar  363  TYR363     -0.0198
    102  CD1       29.3920   49.5360   30.1690 C.ar  363  TYR363     -0.0009
    103  CD2       27.5510   49.1390   31.6540 C.ar  363  TYR363     -0.0009
    104  CE1       28.9100   48.5450   29.3170 C.ar  363  TYR363      0.0417
    105  CE2       27.0660   48.1690   30.8140 C.ar  363  TYR363      0.0417
    106  CZ        27.7440   47.8730   29.6560 C.ar  363  TYR363      0.1957
    107  OH        27.2290   46.9110   28.8320 O.3   363  TYR363     -0.2866
@<TRIPOS>BOND
     1     1     2    1
     2     2     5    1
     3     2     3    1
     4    57    55    1
     5     5     6    1
     6     3     4    2
     7    55    56    1
     8    55    52    1
     9     6     7   ar
    10     6     8   ar
    11    43    42    2
    12     7     9   ar
    13    51    52    1
    14    52    53    1
    15    42    41    1
    16    40    41    1
    17     8    10   ar
    18     9    11   ar
    19    41    44    1
    20    53    54    2
    21    10    11   ar
    22    35    36    2
    23    35    34    1
    24    48    46   ar
    25    48    50   ar
    26    46    45   ar
    27    50    49   ar
    28    45    44    1
    29    45    47   ar
    30    49    47   ar
    31    28    27    2
    32    34    37    1
    33    34    33    1
    34    37    38    1
    35    27    33   am
    36    27    26    1
    37    33    39    1
    38    38    39    1
    39    12    13    1
    40    16    17    1
    41    16    13    1
    42    19    17   ar
    43    32    30   am
    44    29    30    1
    45    29    26    1
    46    25    26    1
    47    30    31    2
    48    17    18   ar
    49    13    14    1
    50    85    84    1
    51    86    84    1
    52    14    15    2
    53    84    83    1
    54    61    60    2
    55    83    80    1
    56    24    21    1
    57   107   106    1
    58    63    62    1
    59    69    66    1
    60    69    70    1
    61    75    76    1
    62    75    72    1
    63   104   106   ar
    64   104   102   ar
    65    20    21    1
    66    66    65    1
    67    66    67    1
    68    60    65   am
    69    60    59    1
    70    71    72    1
    71    71    67   am
    72    22    21    1
    73    22    23    2
    74   106   105   ar
    75    78    76   am
    76    80    81    1
    77    80    79    1
    78    76    77    2
    79    58    59    1
    80    72    73    1
    81   102   101   ar
    82    67    68    2
    83    59    62    1
    84    62    64    1
    85    81    82    2
    86   105   103   ar
    87    74    73    2
    88   101   103   ar
    89   101   100    1
    90    95    93   ar
    91    93    94   ar
    92    93    92    1
    93   100    97    1
    94    92    91    1
    95    90    89    2
    96    97    96    1
    97    97    98    1
    98    89    96   am
    99    89    88    1
   100    91    88    1
   101    98    99    2
   102    88    87    1
