@<TRIPOS>MOLECULE
tmp/3dmiA00.pdb
 229 219 0 0 0
SMALL
GASTEIGER

@<TRIPOS>ATOM
      1  N         11.8020   79.9800   22.7000 N.3     9  ILE9       -0.1231
      2  CA        12.8580   79.1060   23.2280 C.3     9  ILE9        0.1692
      3  C         12.5420   77.6480   22.9050 C.2     9  ILE9        0.2592
      4  O         13.4240   76.8830   22.5010 O.2     9  ILE9       -0.2718
      5  CB        13.0380   79.3080   24.7440 C.3     9  ILE9        0.0266
      6  CG1       13.4950   80.7450   25.0160 C.3     9  ILE9        0.0019
      7  CG2       14.0250   78.2900   25.3300 C.3     9  ILE9        0.0020
      8  CD1       13.0890   81.2900   26.3590 C.3     9  ILE9        0.0001
      9  N         11.2740   77.2720   23.0560 N.am   10  PHE10      -0.1976
     10  CA        10.8530   75.9020   22.7700 C.3    10  PHE10       0.1639
     11  C         11.0840   75.5540   21.3070 C.2    10  PHE10       0.2290
     12  O         11.6560   74.5080   20.9890 O.2    10  PHE10      -0.2864
     13  CB         9.3770   75.7160   23.1450 C.3    10  PHE10       0.0560
     14  CG         8.8870   74.2900   23.0220 C.ar   10  PHE10      -0.0200
     15  CD1        8.9370   73.4330   24.1140 C.ar   10  PHE10      -0.0042
     16  CD2        8.3710   73.8080   21.8120 C.ar   10  PHE10      -0.0042
     17  CE1        8.4860   72.1150   24.0130 C.ar   10  PHE10      -0.0003
     18  CE2        7.9150   72.4870   21.6910 C.ar   10  PHE10      -0.0003
     19  CZ         7.9680   71.6380   22.8020 C.ar   10  PHE10      -0.0000
     20  N         14.9050   75.1110   20.7050 N.3    13  ASN13      -0.1225
     21  CA        15.7020   74.1900   21.5180 C.3    13  ASN13       0.1785
     22  C         15.0540   72.8480   21.8450 C.2    13  ASN13       0.2597
     23  O         15.7500   71.9120   22.2520 O.2    13  ASN13      -0.2718
     24  CB        16.0730   74.8590   22.8410 C.3    13  ASN13       0.1169
     25  CG        17.0090   76.0200   22.6560 C.2    13  ASN13       0.2627
     26  OD1       18.2180   75.8400   22.5160 O.2    13  ASN13      -0.2716
     27  ND2       16.4540   77.2310   22.6460 N.am   13  ASN13      -0.0877
     28  N         13.7300   72.7620   21.6920 N.am   14  CYS14      -0.1970
     29  CA        12.9720   71.6210   22.2100 C.3    14  CYS14       0.1712
     30  C         12.1130   70.9090   21.1870 C.2    14  CYS14       0.2296
     31  O         11.8770   69.7080   21.3250 O.2    14  CYS14      -0.2864
     32  CB        12.0570   72.0520   23.3590 C.3    14  CYS14       0.0983
     33  SG        12.7730   73.2210   24.5440 S.3    14  CYS14      -0.0798
     34  N         12.4880   69.8890   18.1660 N.3    16  ALA16      -0.1231
     35  CA        13.0520   68.7830   17.3840 C.3    16  ALA16       0.1694
     36  C         12.7810   67.4270   18.0400 C.2    16  ALA16       0.2592
     37  O         12.5270   66.4370   17.3430 O.2    16  ALA16      -0.2718
     38  CB        14.5380   68.9830   17.1380 C.3    16  ALA16       0.0304
     39  N         12.8530   67.3700   19.3710 N.am   17  CYS17      -0.1956
     40  CA        12.5500   66.1470   20.1070 C.3    17  CYS17       0.1843
     41  C         11.1360   66.0980   20.6820 C.2    17  CYS17       0.2625
     42  O         10.6450   65.0190   21.0090 O.2    17  CYS17      -0.2714
     43  CB        13.5310   65.9660   21.2610 C.3    17  CYS17       0.0997
     44  SG        15.2450   65.7580   20.7390 S.3    17  CYS17      -0.0797
     45  N         10.4990   67.2560   20.8270 N.am   18  HIS18      -0.1973
     46  CA         9.2260   67.3500   21.5440 C.3    18  HIS18       0.1656
     47  C          8.1190   68.0510   20.7300 C.2    18  HIS18       0.2291
     48  O          7.1790   68.5820   21.3110 O.2    18  HIS18      -0.2864
     49  CB         9.4010   68.0790   22.9020 C.3    18  HIS18       0.0771
     50  CG        10.2430   67.3540   23.9330 C.ar   18  HIS18       0.0820
     51  ND1        9.9140   66.1120   24.4420 N.ar   18  HIS18      -0.2267
     52  CD2       11.3610   67.7470   24.6060 C.ar   18  HIS18       0.1154
     53  CE1       10.8160   65.7590   25.3530 C.ar   18  HIS18       0.1986
     54  NE2       11.7010   66.7390   25.4890 N.ar   18  HIS18      -0.2212
     55  N          7.4520   62.9350   22.2900 N.3    23  ASN23      -0.1240
     56  CA         8.8540   62.6580   22.6040 C.3    23  ASN23       0.1653
     57  C          9.4240   61.6950   21.5810 C.2    23  ASN23       0.2266
     58  O          9.1060   60.5120   21.5950 O.2    23  ASN23      -0.2867
     59  CB         9.0310   62.1280   24.0330 C.3    23  ASN23       0.1155
     60  CG        10.4940   62.0480   24.4510 C.2    23  ASN23       0.2627
     61  OD1       11.3700   61.7860   23.6230 O.2    23  ASN23      -0.2716
     62  ND2       10.7620   62.2660   25.7370 N.am   23  ASN23      -0.0877
     63  N         12.4750   60.5150   21.0810 N.3    25  ILE25      -0.1231
     64  CA        13.5130   59.5810   21.4960 C.3    25  ILE25       0.1692
     65  C         13.0190   58.5610   22.5170 C.2    25  ILE25       0.2591
     66  O         13.4670   57.4200   22.5150 O.2    25  ILE25      -0.2718
     67  CB        14.7830   60.3420   21.9910 C.3    25  ILE25       0.0266
     68  CG1       15.4700   61.0140   20.7930 C.3    25  ILE25       0.0019
     69  CG2       15.7400   59.4140   22.7190 C.3    25  ILE25       0.0020
     70  CD1       16.6490   61.9050   21.1560 C.3    25  ILE25       0.0001
     71  N         12.1040   58.9850   23.3900 N.am   26  MET26      -0.1979
     72  CA        11.5070   58.1090   24.3870 C.3    26  MET26       0.1605
     73  C          9.9990   58.2890   24.3030 C.2    26  MET26       0.2287
     74  O          9.4290   59.0970   25.0360 O.2    26  MET26      -0.2864
     75  CB        12.0290   58.4770   25.7780 C.3    26  MET26       0.0413
     76  CG        11.7800   57.4450   26.8430 C.3    26  MET26       0.0598
     77  SD        12.2450   55.7710   26.3670 S.3    26  MET26      -0.1393
     78  CE        13.9180   55.9820   25.8220 C.3    26  MET26       0.0692
     79  N          7.4120   59.1370   27.1150 N.3    29  LYS29      -0.1231
     80  CA         7.7390   60.1870   28.0750 C.3    29  LYS29       0.1693
     81  C          7.5130   61.5630   27.4630 C.2    29  LYS29       0.2593
     82  O          8.4240   62.3920   27.3440 O.2    29  LYS29      -0.2718
     83  CB         9.1600   60.0060   28.6030 C.3    29  LYS29       0.0285
     84  CG         9.3460   58.7030   29.3650 C.3    29  LYS29       0.0035
     85  CD        10.6530   58.7250   30.1260 C.3    29  LYS29       0.0206
     86  CE        10.7610   57.5310   31.0480 C.3    29  LYS29       0.1093
     87  NZ        11.0420   56.2830   30.2990 N.3    29  LYS29      -0.1314
     88  N          6.2550   61.8160   27.1160 N.am   30  THR30      -0.1939
     89  CA         5.8870   63.0130   26.3740 C.3    30  THR30       0.2028
     90  C          5.7100   64.2090   27.2950 C.2    30  THR30       0.2642
     91  O          5.8680   64.1000   28.5200 O.2    30  THR30      -0.2714
     92  CB         4.5710   62.8140   25.6100 C.3    30  THR30       0.1808
     93  OG1        3.4910   62.7600   26.5440 O.3    30  THR30      -0.2208
     94  CG2        4.5940   61.5400   24.7630 C.3    30  THR30       0.0379
     95  N          5.3720   65.3470   26.6990 N.am   31  LEU31      -0.1977
     96  CA         5.0910   66.5570   27.4610 C.3    31  LEU31       0.1596
     97  C          3.5940   66.7250   27.7180 C.2    31  LEU31       0.2287
     98  O          3.1680   67.7630   28.2190 O.2    31  LEU31      -0.2864
     99  CB         5.6660   67.7850   26.7480 C.3    31  LEU31       0.0297
    100  CG         7.1460   67.7270   26.3390 C.3    31  LEU31       0.0022
    101  CD1        7.6010   69.0890   25.8690 C.3    31  LEU31       0.0001
    102  CD2        8.0390   67.2280   27.4790 C.3    31  LEU31       0.0001
    103  N          1.6080   62.2990   30.9910 N.3    35  ALA35      -0.1231
    104  CA         2.9620   61.7520   30.9560 C.3    35  ALA35       0.1694
    105  C          3.8710   62.4700   31.9440 C.2    35  ALA35       0.2591
    106  O          4.6910   61.8350   32.6130 O.2    35  ALA35      -0.2718
    107  CB         3.5330   61.8250   29.5450 C.3    35  ALA35       0.0304
    108  N          3.7240   63.7870   32.0590 N.am   36  LEU36      -0.1980
    109  CA         4.4550   64.5280   33.0920 C.3    36  LEU36       0.1596
    110  C          4.1230   63.9930   34.4810 C.2    36  LEU36       0.2287
    111  O          5.0140   63.8180   35.3220 O.2    36  LEU36      -0.2864
    112  CB         4.1750   66.0300   33.0050 C.3    36  LEU36       0.0297
    113  CG         4.6010   66.7260   31.7070 C.3    36  LEU36       0.0022
    114  CD1        4.1530   68.1770   31.7380 C.3    36  LEU36       0.0001
    115  CD2        6.1060   66.6440   31.5030 C.3    36  LEU36       0.0001
    116  N          6.0230   60.3640   34.5680 N.3    39  TYR39      -0.1227
    117  CA         7.4170   60.1460   34.2190 C.3    39  TYR39       0.1736
    118  C          8.3780   61.2660   34.5980 C.2    39  TYR39       0.2595
    119  O          9.5930   61.0540   34.5660 O.2    39  TYR39      -0.2718
    120  CB         7.5400   59.8850   32.7100 C.3    39  TYR39       0.0548
    121  CG         6.9050   58.6060   32.2160 C.ar   39  TYR39      -0.0200
    122  CD1        5.7900   58.6400   31.3760 C.ar   39  TYR39      -0.0009
    123  CD2        7.4450   57.3610   32.5520 C.ar   39  TYR39      -0.0009
    124  CE1        5.2190   57.4720   30.8980 C.ar   39  TYR39       0.0417
    125  CE2        6.8740   56.1800   32.0790 C.ar   39  TYR39       0.0417
    126  CZ         5.7640   56.2500   31.2530 C.ar   39  TYR39       0.1957
    127  OH         5.1880   55.0840   30.7820 O.3    39  TYR39      -0.2866
    128  N          7.8680   62.4510   34.9380 N.am   40  LEU40      -0.1980
    129  CA         8.7600   63.5450   35.3230 C.3    40  LEU40       0.1596
    130  C          9.0100   63.5010   36.8230 C.2    40  LEU40       0.2287
    131  O          8.0640   63.4740   37.6060 O.2    40  LEU40      -0.2864
    132  CB         8.1690   64.8950   34.9230 C.3    40  LEU40       0.0297
    133  CG         8.9940   66.1390   35.2820 C.3    40  LEU40       0.0022
    134  CD1       10.4160   66.0940   34.7200 C.3    40  LEU40       0.0001
    135  CD2        8.2840   67.3840   34.7970 C.3    40  LEU40       0.0001
    136  N          9.9450   70.8560   35.8190 N.3    49  ILE49      -0.1245
    137  CA        10.3480   71.0890   34.4220 C.3    49  ILE49       0.1561
    138  C         11.6750   71.8520   34.3540 C.2    49  ILE49       0.2260
    139  O         12.5730   71.4780   33.6070 O.2    49  ILE49      -0.2867
    140  CB         9.2530   71.8270   33.5970 C.3    49  ILE49       0.0252
    141  CG1        7.9780   70.9830   33.5260 C.3    49  ILE49       0.0019
    142  CG2        9.7440   72.1240   32.1760 C.3    49  ILE49       0.0019
    143  CD1        6.7350   71.7760   33.1430 C.3    49  ILE49       0.0001
    144  N         14.6590   69.5140   35.1700 N.3    52  GLN52      -0.1231
    145  CA        15.0410   68.6330   34.0820 C.3    52  GLN52       0.1698
    146  C         15.6380   69.3580   32.8830 C.2    52  GLN52       0.2592
    147  O         16.5840   68.8640   32.2740 O.2    52  GLN52      -0.2718
    148  CB        13.8770   67.7530   33.6550 C.3    52  GLN52       0.0381
    149  CG        14.3140   66.6700   32.6670 C.3    52  GLN52       0.0905
    150  CD        13.6360   65.3500   32.9110 C.2    52  GLN52       0.2608
    151  OE1       13.5820   64.8700   34.0390 O.2    52  GLN52      -0.2717
    152  NE2       13.1340   64.7380   31.8470 N.am   52  GLN52      -0.0878
    153  N         15.0960   70.5200   32.5420 N.am   53  VAL53      -0.1980
    154  CA        15.6740   71.3080   31.4580 C.3    53  VAL53       0.1595
    155  C         17.1050   71.7370   31.8160 C.2    53  VAL53       0.2287
    156  O         18.0150   71.6680   30.9820 O.2    53  VAL53      -0.2864
    157  CB        14.7830   72.5310   31.1310 C.3    53  VAL53       0.0276
    158  CG1       15.5090   73.4950   30.2030 C.3    53  VAL53       0.0022
    159  CG2       13.4850   72.0690   30.5070 C.3    53  VAL53       0.0022
    160  N         18.5020   64.7400   31.4010 N.3    57  LYS57      -0.1231
    161  CA        18.2950   63.4040   31.9350 C.3    57  LYS57       0.1693
    162  C         18.3950   62.3930   30.8110 C.2    57  LYS57       0.2592
    163  O         17.6600   62.4830   29.8300 O.2    57  LYS57      -0.2718
    164  CB        16.9440   63.2740   32.6360 C.3    57  LYS57       0.0285
    165  CG        16.7820   61.9320   33.3360 C.3    57  LYS57       0.0035
    166  CD        15.4310   61.8470   33.9970 C.3    57  LYS57       0.0206
    167  CE        15.2970   60.5440   34.7720 C.3    57  LYS57       0.1093
    168  NZ        14.2440   60.6620   35.8180 N.3    57  LYS57      -0.1314
    169  N         19.3080   61.4380   30.9640 N.am   58  ASN58      -0.1960
    170  CA        19.5030   60.3830   29.9700 C.3    58  ASN58       0.1819
    171  C         19.7630   60.9680   28.5840 C.2    58  ASN58       0.2621
    172  O         20.7050   61.7310   28.4220 O.2    58  ASN58      -0.2715
    173  CB        18.3400   59.3810   30.0000 C.3    58  ASN58       0.1195
    174  CG        18.2230   58.6730   31.3360 C.2    58  ASN58       0.2630
    175  OD1       19.2340   58.3140   31.9480 O.2    58  ASN58      -0.2716
    176  ND2       16.9940   58.4660   31.7980 N.am   58  ASN58      -0.0877
    177  N         18.9310   60.6440   27.5940 N.am   59  ALA59      -0.1963
    178  CA        19.1280   61.1610   26.2470 C.3    59  ALA59       0.1728
    179  C         18.7800   62.6500   26.1010 C.2    59  ALA59       0.2616
    180  O         19.1190   63.2740   25.0880 O.2    59  ALA59      -0.2715
    181  CB        18.3470   60.3240   25.2280 C.3    59  ALA59       0.0334
    182  N         18.1080   63.2270   27.0970 N.am   60  MET60      -0.1964
    183  CA        17.8090   64.6510   27.0390 C.3    60  MET60       0.1722
    184  C         19.0000   65.4690   27.5390 C.2    60  MET60       0.2458
    185  O         19.4310   65.2930   28.6820 O.2    60  MET60      -0.2730
    186  CB        16.5840   64.9970   27.8690 C.3    60  MET60       0.0427
    187  CG        16.3350   66.4920   27.9000 C.3    60  MET60       0.0599
    188  SD        14.7100   66.9060   28.5100 S.3    60  MET60      -0.1393
    189  CE        15.0140   68.5890   29.0780 C.3    60  MET60       0.0692
    190  N         19.5330   66.3650   26.6860 N.am   61  PRO61      -0.2727
    191  CA        20.6740   67.1520   27.1250 C.3    61  PRO61       0.1402
    192  C         20.3400   68.1810   28.2010 C.2    61  PRO61       0.2269
    193  O         19.1770   68.5660   28.3740 O.2    61  PRO61      -0.2865
    194  CB        21.1190   67.8660   25.8460 C.3    61  PRO61       0.0296
    195  CG        19.8730   67.9750   25.0340 C.3    61  PRO61       0.0237
    196  CD        19.1350   66.6970   25.3010 C.3    61  PRO61       0.0939
    197  N         20.4980   71.9820   29.5440 N.3    63  PHE63      -0.1241
    198  CA        20.4150   73.3140   28.9370 C.3    63  PHE63       0.1605
    199  C         21.0150   74.4160   29.7980 C.2    63  PHE63       0.2264
    200  O         20.9860   75.5700   29.4120 O.2    63  PHE63      -0.2867
    201  CB        18.9760   73.6470   28.5330 C.3    63  PHE63       0.0534
    202  CG        18.5090   72.8500   27.3600 C.ar   63  PHE63      -0.0203
    203  CD1       18.6410   73.3580   26.0720 C.ar   63  PHE63      -0.0042
    204  CD2       18.0210   71.5560   27.5290 C.ar   63  PHE63      -0.0042
    205  CE1       18.2460   72.6130   24.9720 C.ar   63  PHE63      -0.0003
    206  CE2       17.6280   70.7930   26.4260 C.ar   63  PHE63      -0.0003
    207  CZ        17.7420   71.3360   25.1460 C.ar   63  PHE63      -0.0000
    208  N         21.2890   77.9980   27.8940 N.3    67  LEU67      -0.1245
    209  CA        20.2330   78.9440   28.2490 C.3    67  LEU67       0.1561
    210  C         20.4830   79.5930   29.6020 C.2    67  LEU67       0.2260
    211  O         21.1830   79.0430   30.4610 O.2    67  LEU67      -0.2867
    212  CB        18.8650   78.2400   28.2600 C.3    67  LEU67       0.0270
    213  CG        18.3990   77.5750   26.9580 C.3    67  LEU67       0.0019
    214  CD1       17.0790   76.8520   27.1840 C.3    67  LEU67       0.0001
    215  CD2       18.2680   78.5980   25.8190 C.3    67  LEU67       0.0001
    216  N         10.6240   78.8740   29.2170 N.3    75  VAL75      -0.1245
    217  CA        10.2590   77.6590   28.4890 C.3    75  VAL75       0.1561
    218  C          9.4730   76.6990   29.3860 C.2    75  VAL75       0.2260
    219  O          8.5260   76.0600   28.9120 O.2    75  VAL75      -0.2867
    220  CB        11.4570   76.9900   27.7420 C.3    75  VAL75       0.0252
    221  CG1       12.3710   76.2210   28.6910 C.3    75  VAL75       0.0019
    222  CG2       10.9400   76.0740   26.6290 C.3    75  VAL75       0.0019
    223  N          5.7850   75.1300   28.5840 N.3    79  VAL79      -0.1245
    224  CA         5.5410   73.6900   28.5690 C.3    79  VAL79       0.1561
    225  C          4.3680   73.3490   29.4820 C.2    79  VAL79       0.2260
    226  O          3.4730   72.6020   29.0860 O.2    79  VAL79      -0.2867
    227  CB         6.8040   72.9000   28.9710 C.3    79  VAL79       0.0252
    228  CG1        6.4750   71.4110   29.1940 C.3    79  VAL79       0.0019
    229  CG2        7.8690   73.0370   27.8940 C.3    79  VAL79       0.0019
@<TRIPOS>BOND
     1    38    35    1
     2    37    36    2
     3    35    36    1
     4    35    34    1
     5    36    39   am
     6    39    40    1
     7    40    41    1
     8    40    43    1
     9    41    45   am
    10    41    42    2
    11    20    21    1
    12    47    48    2
    13    47    46    1
    14    44    43    1
    15    68    70    1
    16    68    67    1
    17    45    46    1
    18    12    11    2
    19    63    64    1
    20    30    31    2
    21    30    29    1
    22    11    10    1
    23    64    67    1
    24    64    65    1
    25    21    22    1
    26    21    24    1
    27    46    49    1
    28    57    58    2
    29    57    56    1
    30    18    16   ar
    31    18    19   ar
    32    28    22   am
    33    28    29    1
    34    16    14   ar
    35    22    23    2
    36    67    69    1
    37    29    32    1
    38    55    56    1
    39     4     3    2
    40    66    65    2
    41    26    25    2
    42    65    71   am
    43    56    59    1
    44    27    25   am
    45    25    24    1
    46     1     2    1
    47    10     9    1
    48    10    13    1
    49    19    17   ar
    50    49    50    1
    51     3     9   am
    52     3     2    1
    53    14    13    1
    54    14    15   ar
    55     2     5    1
    56    32    33    1
    57    71    72    1
    58    61    60    2
    59    50    51   ar
    60    50    52   ar
    61    17    15   ar
    62    59    60    1
    63    73    72    1
    64    73    74    2
    65    72    75    1
    66    51    53   ar
    67    60    62   am
    68    52    54   ar
    69     5     6    1
    70     5     7    1
    71    94    92    1
    72   205   207   ar
    73   205   203   ar
    74     6     8    1
    75   195   196    1
    76   195   194    1
    77   180   179    2
    78   207   206   ar
    79   181   178    1
    80   196   190    1
    81    53    54   ar
    82    92    89    1
    83    92    93    1
    84    75    76    1
    85   215   213    1
    86    78    77    1
    87   194   191    1
    88   101   100    1
    89   203   202   ar
    90   179   178    1
    91   179   182   am
    92   178   177    1
    93   100    99    1
    94   100   102    1
    95    77    76    1
    96    89    88    1
    97    89    90    1
    98   206   204   ar
    99   222   220    1
   100   190   191    1
   101   190   184   am
   102    95    90   am
   103    95    96    1
   104    99    96    1
   105   213   214    1
   106   213   212    1
   107   183   182    1
   108   183   184    1
   109   183   186    1
   110    79    80    1
   111    88    81   am
   112   191   192    1
   113    90    91    2
   114    82    81    2
   115   202   204   ar
   116   202   201    1
   117    96    97    1
   118    81    80    1
   119   184   185    2
   120   177   171   am
   121    97    98    2
   122   220   217    1
   123   220   221    1
   124   186   187    1
   125   229   227    1
   126   208   209    1
   127   187   188    1
   128    80    83    1
   129   192   193    2
   130   209   212    1
   131   209   210    1
   132   172   171    2
   133   217   216    1
   134   217   218    1
   135   188   189    1
   136   201   198    1
   137   224   223    1
   138   224   227    1
   139   224   225    1
   140   171   170    1
   141    83    84    1
   142   219   218    2
   143   198   197    1
   144   198   199    1
   145   227   228    1
   146   226   225    2
   147    84    85    1
   148   200   199    2
   149   107   104    1
   150   210   211    2
   151   163   162    2
   152   170   173    1
   153   170   169    1
   154   173   174    1
   155    85    86    1
   156   158   157    1
   157    87    86    1
   158   159   157    1
   159   127   126    1
   160   162   169   am
   161   162   161    1
   162   124   126   ar
   163   124   122   ar
   164   104   103    1
   165   104   105    1
   166   156   155    2
   167   157   154    1
   168   126   125   ar
   169   174   176   am
   170   174   175    2
   171   122   121   ar
   172   160   161    1
   173   154   155    1
   174   154   153    1
   175   115   113    1
   176   113   114    1
   177   113   112    1
   178   152   150   am
   179   161   164    1
   180   105   108   am
   181   105   106    2
   182   108   109    1
   183   125   123   ar
   184   142   140    1
   185   121   123   ar
   186   121   120    1
   187   147   146    2
   188   153   146   am
   189   164   165    1
   190   149   150    1
   191   149   148    1
   192   120   117    1
   193   146   145    1
   194   150   151    2
   195   112   109    1
   196   109   110    1
   197   143   141    1
   198   165   166    1
   199   141   140    1
   200   140   137    1
   201   139   138    2
   202   148   145    1
   203   166   167    1
   204   145   144    1
   205   117   116    1
   206   117   118    1
   207   138   137    1
   208   137   136    1
   209   110   111    2
   210   119   118    2
   211   118   128   am
   212   134   133    1
   213   167   168    1
   214   135   133    1
   215   132   133    1
   216   132   129    1
   217   128   129    1
   218   129   130    1
   219   130   131    2
