@<TRIPOS>MOLECULE
tmp/3dmkA00.pdb
 97 95 0 0 0
SMALL
GASTEIGER

@<TRIPOS>ATOM
      1  N        -49.2600   10.0010   70.2320 N.3    18  ASN18      -0.1225
      2  CA       -49.0130    9.4130   68.9140 C.3    18  ASN18       0.1785
      3  C        -49.7550    8.0970   68.6620 C.2    18  ASN18       0.2597
      4  O        -49.9870    7.7280   67.5090 O.2    18  ASN18      -0.2718
      5  CB       -47.5060    9.2240   68.6800 C.3    18  ASN18       0.1169
      6  CG       -46.9120    8.0810   69.5080 C.2    18  ASN18       0.2627
      7  OD1      -47.0210    8.0730   70.7360 O.2    18  ASN18      -0.2716
      8  ND2      -46.2570    7.1240   68.8290 N.am   18  ASN18      -0.0877
      9  N        -50.1160    7.3940   69.7350 N.am   19  SER19      -0.1952
     10  CA       -50.9210    6.1730   69.6320 C.3    19  SER19       0.1924
     11  C        -52.4320    6.4520   69.6520 C.2    19  SER19       0.2314
     12  O        -53.2260    5.6060   69.2250 O.2    19  SER19      -0.2863
     13  CB       -50.5690    5.2030   70.7630 C.3    19  SER19       0.2116
     14  OG       -49.2680    4.6770   70.5980 O.3    19  SER19      -0.2180
     15  N        -53.1630    8.4890   64.0040 N.3    65  PRO65      -0.2102
     16  CA       -52.1060    7.8620   64.7970 C.3    65  PRO65       0.1504
     17  C        -50.8190    7.6680   64.0030 C.2    65  PRO65       0.2576
     18  O        -50.8680    7.5120   62.7820 O.2    65  PRO65      -0.2718
     19  CB       -52.7010    6.4980   65.1670 C.3    65  PRO65       0.0282
     20  CG       -54.1590    6.6600   65.0410 C.3    65  PRO65       0.0208
     21  CD       -54.3740    7.6500   63.9500 C.3    65  PRO65       0.0893
     22  N        -49.6810    7.6700   64.6940 N.am   66  PHE66      -0.1963
     23  CA       -48.3800    7.5500   64.0310 C.3    66  PHE66       0.1771
     24  C        -47.2720    7.0590   64.9620 C.2    66  PHE66       0.2619
     25  O        -47.4450    6.9900   66.1800 O.2    66  PHE66      -0.2715
     26  CB       -47.9800    8.8930   63.4170 C.3    66  PHE66       0.0574
     27  CG       -47.7880    9.9860   64.4250 C.ar   66  PHE66      -0.0200
     28  CD1      -46.5210   10.3470   64.8430 C.ar   66  PHE66      -0.0042
     29  CD2      -48.8800   10.6540   64.9560 C.ar   66  PHE66      -0.0042
     30  CE1      -46.3450   11.3550   65.7690 C.ar   66  PHE66      -0.0003
     31  CE2      -48.7110   11.6600   65.8870 C.ar   66  PHE66      -0.0003
     32  CZ       -47.4420   12.0130   66.2920 C.ar   66  PHE66      -0.0000
     33  N        -46.1290    6.7350   64.3660 N.am   67  ARG67      -0.1963
     34  CA       -44.9950    6.1720   65.0920 C.3    67  ARG67       0.1729
     35  C        -43.9880    7.2690   65.3980 C.2    67  ARG67       0.2616
     36  O        -43.9760    8.3050   64.7350 O.2    67  ARG67      -0.2715
     37  CB       -44.3380    5.0600   64.2690 C.3    67  ARG67       0.0348
     38  CG       -45.3390    4.1170   63.6040 C.3    67  ARG67       0.0492
     39  CD       -44.6880    2.8510   63.0560 C.3    67  ARG67       0.2205
     40  NE       -45.6200    2.0910   62.2200 N.pl3  67  ARG67      -0.0865
     41  CZ       -46.6220    1.3350   62.6740 C.cat  67  ARG67       0.5346
     42  NH1      -46.8530    1.2090   63.9780 N.pl3  67  ARG67       0.1354
     43  NH2      -47.4060    0.6960   61.8100 N.pl3  67  ARG67       0.1354
     44  N        -43.1450    7.0330   66.4020 N.am   68  ALA68      -0.1977
     45  CA       -42.1690    8.0310   66.8570 C.3    68  ALA68       0.1597
     46  C        -41.3530    8.5930   65.6940 C.2    68  ALA68       0.2287
     47  O        -41.2700    9.8130   65.5170 O.2    68  ALA68      -0.2864
     48  CB       -41.2490    7.4300   67.9080 C.3    68  ALA68       0.0319
     49  N        -45.3830   12.3990   71.4570 N.3   102  VAL102     -0.1231
     50  CA       -45.1660   10.9560   71.3590 C.3   102  VAL102      0.1692
     51  C        -45.0560   10.3550   72.7590 C.2   102  VAL102      0.2592
     52  O        -44.2990   10.8520   73.5970 O.2   102  VAL102     -0.2718
     53  CB       -43.9050   10.6120   70.5390 C.3   102  VAL102      0.0266
     54  CG1      -43.6920    9.0990   70.4840 C.3   102  VAL102      0.0020
     55  CG2      -44.0180   11.1840   69.1320 C.3   102  VAL102      0.0020
     56  N        -45.8250    9.2950   73.0050 N.am  103  ALA103     -0.1966
     57  CA       -45.8500    8.6410   74.3110 C.3   103  ALA103      0.1728
     58  C        -44.4490    8.1980   74.7090 C.2   103  ALA103      0.2616
     59  O        -43.9820    7.1360   74.2980 O.2   103  ALA103     -0.2715
     60  CB       -46.7970    7.4520   74.2940 C.3   103  ALA103      0.0334
     61  N        -43.7850    9.0280   75.5050 N.am  104  GLN104     -0.1963
     62  CA       -42.3990    8.8030   75.8930 C.3   104  GLN104      0.1733
     63  C        -42.3490    8.4060   77.3620 C.2   104  GLN104      0.2616
     64  O        -43.2930    8.6690   78.1060 O.2   104  GLN104     -0.2715
     65  CB       -41.5930   10.0810   75.6400 C.3   104  GLN104      0.0408
     66  CG       -40.0750    9.9300   75.7120 C.3   104  GLN104      0.0908
     67  CD       -39.3330   11.1100   75.0820 C.2   104  GLN104      0.2608
     68  OE1      -39.7350   12.2710   75.2200 O.2   104  GLN104     -0.2717
     69  NE2      -38.2420   10.8100   74.3870 N.am  104  GLN104     -0.0878
     70  N        -41.2540    7.7670   77.7710 N.am  105  TYR105     -0.1974
     71  CA       -41.0880    7.3120   79.1510 C.3   105  TYR105      0.1639
     72  C        -40.6830    8.4440   80.0890 C.2   105  TYR105      0.2290
     73  O        -39.9210    9.3390   79.7070 O.2   105  TYR105     -0.2864
     74  CB       -40.0390    6.2050   79.2290 C.3   105  TYR105      0.0560
     75  CG       -39.6940    5.7900   80.6400 C.ar  105  TYR105     -0.0198
     76  CD1      -40.6850    5.3870   81.5250 C.ar  105  TYR105     -0.0009
     77  CD2      -38.3750    5.7930   81.0900 C.ar  105  TYR105     -0.0009
     78  CE1      -40.3760    5.0070   82.8250 C.ar  105  TYR105      0.0417
     79  CE2      -38.0540    5.4080   82.3910 C.ar  105  TYR105      0.0417
     80  CZ       -39.0590    5.0150   83.2540 C.ar  105  TYR105      0.1957
     81  OH       -38.7480    4.6310   84.5420 O.3   105  TYR105     -0.2866
     82  N        -51.4150    9.6430   77.9260 N.3   189  THR189     -0.1218
     83  CA       -51.2910    8.1810   77.7940 C.3   189  THR189      0.1862
     84  C        -52.2760    7.4400   78.7050 C.2   189  THR189      0.2287
     85  O        -52.7180    6.3370   78.3800 O.2   189  THR189     -0.2866
     86  CB       -49.8450    7.6690   78.0720 C.3   189  THR189      0.1770
     87  OG1      -49.5360    7.7820   79.4690 O.3   189  THR189     -0.2211
     88  CG2      -48.8160    8.4460   77.2470 C.3   189  THR189      0.0375
     89  N        -51.6600    6.4400   81.8770 N.3   191  GLU191     -0.1245
     90  CA       -50.9890    5.5290   82.7970 C.3   191  GLU191      0.1567
     91  C        -50.6690    6.2530   84.0910 C.2   191  GLU191      0.2260
     92  O        -50.2510    7.4190   84.0730 O.2   191  GLU191     -0.2867
     93  CB       -49.6990    4.9830   82.1850 C.3   191  GLU191      0.0388
     94  CG       -49.9240    4.0010   81.0390 C.3   191  GLU191      0.1160
     95  CD       -48.6460    3.2960   80.5830 C.2   191  GLU191      0.3649
     96  OE1      -47.5380    3.6840   81.0290 O.co2 191  GLU191     -0.2457
     97  OE2      -48.7580    2.3490   79.7700 O.co2 191  GLU191     -0.2457
@<TRIPOS>BOND
     1    43    41    1
     2    40    41    2
     3    40    39    1
     4    41    42    1
     5    18    17    2
     6    39    38    1
     7    26    23    1
     8    26    27    1
     9    38    37    1
    10    21    15    1
    11    21    20    1
    12    17    22   am
    13    17    16    1
    14    15    16    1
    15    23    22    1
    16    23    24    1
    17    37    34    1
    18    33    24   am
    19    33    34    1
    20    27    28   ar
    21    27    29   ar
    22    36    35    2
    23    16    19    1
    24    28    30   ar
    25    29    31   ar
    26    24    25    2
    27    20    19    1
    28    34    35    1
    29    35    44   am
    30    47    46    2
    31    46    45    1
    32    30    32   ar
    33    31    32   ar
    34    44    45    1
    35    45    48    1
    36     4     3    2
    37     3     2    1
    38     3     9   am
    39     5     2    1
    40     5     6    1
    41     8     6   am
    42     2     1    1
    43    55    53    1
    44    12    11    2
    45     6     7    2
    46    10    11    1
    47    10     9    1
    48    10    13    1
    49    54    53    1
    50    53    50    1
    51    14    13    1
    52    50    49    1
    53    50    51    1
    54    51    56   am
    55    51    52    2
    56    56    57    1
    57    60    57    1
    58    59    58    2
    59    57    58    1
    60    69    67   am
    61    58    61   am
    62    67    68    2
    63    67    66    1
    64    61    62    1
    65    65    66    1
    66    65    62    1
    67    62    63    1
    68    88    86    1
    69    63    70   am
    70    63    64    2
    71    70    71    1
    72    83    82    1
    73    83    86    1
    74    83    84    1
    75    86    87    1
    76    85    84    2
    77    71    74    1
    78    71    72    1
    79    74    75    1
    80    73    72    2
    81    97    95   ar
    82    95    96   ar
    83    95    94    1
    84    75    77   ar
    85    75    76   ar
    86    94    93    1
    87    77    79   ar
    88    76    78   ar
    89    89    90    1
    90    93    90    1
    91    79    80   ar
    92    90    91    1
    93    78    80   ar
    94    80    81    1
    95    92    91    2
