@<TRIPOS>MOLECULE
tmp/3dmkC01.pdb
 82 73 0 0 0
SMALL
GASTEIGER

@<TRIPOS>ATOM
      1  N         -6.0410   16.5430   52.2760 N.3   469  LEU469     -0.1245
      2  CA        -7.2820   17.2350   51.9720 C.3   469  LEU469      0.1561
      3  C         -8.2340   16.2670   51.2880 C.2   469  LEU469      0.2260
      4  O         -8.0480   15.9180   50.1330 O.2   469  LEU469     -0.2867
      5  CB        -7.0090   18.4500   51.0850 C.3   469  LEU469      0.0270
      6  CG        -8.2220   19.2210   50.5600 C.3   469  LEU469      0.0019
      7  CD1       -9.2320   19.5130   51.6700 C.3   469  LEU469      0.0001
      8  CD2       -7.7660   20.5090   49.8880 C.3   469  LEU469      0.0001
      9  N         -3.1280   27.6080   32.6180 N.3   508  THR508     -0.1218
     10  CA        -2.7240   27.9040   33.9850 C.3   508  THR508      0.1862
     11  C         -2.5760   26.6060   34.7610 C.2   508  THR508      0.2287
     12  O         -3.5530   25.8920   34.9840 O.2   508  THR508     -0.2866
     13  CB        -3.7460   28.8260   34.6850 C.3   508  THR508      0.1770
     14  OG1       -3.8110   30.0790   33.9900 O.3   508  THR508     -0.2211
     15  CG2       -3.3550   29.0740   36.1380 C.3   508  THR508      0.0375
     16  N         -2.2350   24.7240   38.0440 N.3   510  ILE510     -0.1245
     17  CA        -2.4920   24.8450   39.4830 C.3   510  ILE510      0.1561
     18  C         -2.2120   23.4910   40.1090 C.2   510  ILE510      0.2260
     19  O         -2.8170   22.4920   39.7180 O.2   510  ILE510     -0.2867
     20  CB        -3.9520   25.2350   39.8180 C.3   510  ILE510      0.0252
     21  CG1       -4.6240   25.9560   38.6410 C.3   510  ILE510      0.0019
     22  CG2       -3.9800   26.0840   41.0860 C.3   510  ILE510      0.0019
     23  CD1       -6.0430   26.4070   38.9270 C.3   510  ILE510      0.0001
     24  N         -1.0740   21.3880   43.9560 N.3   512  THR512     -0.1218
     25  CA        -0.9510   21.4550   45.4160 C.3   512  THR512      0.1862
     26  C         -0.0600   20.3360   45.9470 C.2   512  THR512      0.2287
     27  O         -0.3330   19.1590   45.7070 O.2   512  THR512     -0.2866
     28  CB        -2.3210   21.3410   46.0920 C.3   512  THR512      0.1770
     29  OG1       -3.1890   22.3800   45.6230 O.3   512  THR512     -0.2211
     30  CG2       -2.1710   21.4530   47.5930 C.3   512  THR512      0.0375
     31  N          3.2320   31.8110   40.8950 N.3   539  LYS539     -0.1245
     32  CA         2.7520   32.2140   42.2140 C.3   539  LYS539      0.1561
     33  C          2.7520   31.0020   43.1360 C.2   539  LYS539      0.2260
     34  O          2.4780   29.8810   42.7030 O.2   539  LYS539     -0.2867
     35  CB         1.3470   32.8090   42.1240 C.3   539  LYS539      0.0271
     36  CG         1.3180   34.2410   41.6120 C.3   539  LYS539      0.0035
     37  CD        -0.1090   34.7620   41.4770 C.3   539  LYS539      0.0206
     38  CE        -0.1600   36.0980   40.7310 C.3   539  LYS539      0.1093
     39  NZ         0.5740   37.1890   41.4330 N.3   539  LYS539     -0.1314
     40  N          1.8590   29.7650   47.4380 N.3   541  PHE541     -0.1241
     41  CA         1.1820   30.1240   48.6810 C.3   541  PHE541      0.1605
     42  C          1.6220   29.2200   49.8350 C.2   541  PHE541      0.2264
     43  O          1.9480   28.0470   49.6120 O.2   541  PHE541     -0.2867
     44  CB        -0.3330   30.0270   48.4920 C.3   541  PHE541      0.0534
     45  CG        -0.8740   30.9750   47.4660 C.ar  541  PHE541     -0.0203
     46  CD1       -1.4570   32.1760   47.8420 C.ar  541  PHE541     -0.0042
     47  CD2       -0.7930   30.6660   46.1150 C.ar  541  PHE541     -0.0042
     48  CE1       -1.9570   33.0510   46.8860 C.ar  541  PHE541     -0.0003
     49  CE2       -1.2870   31.5350   45.1500 C.ar  541  PHE541     -0.0003
     50  CZ        -1.8710   32.7300   45.5350 C.ar  541  PHE541     -0.0000
     51  N          0.0350   27.6820   51.9610 N.3   543  ASN543     -0.1240
     52  CA        -0.7850   26.4740   52.0550 C.3   543  ASN543      0.1653
     53  C         -0.1670   25.2730   51.3230 C.2   543  ASN543      0.2266
     54  O         -0.5890   24.1330   51.5260 O.2   543  ASN543     -0.2867
     55  CB        -2.2230   26.7530   51.5770 C.3   543  ASN543      0.1155
     56  CG        -2.3320   26.9630   50.0670 C.2   543  ASN543      0.2627
     57  OD1       -2.0920   26.0430   49.2850 O.2   543  ASN543     -0.2716
     58  ND2       -2.7180   28.1810   49.6530 N.am  543  ASN543     -0.0877
     59  N          0.3550   25.2660   47.8110 N.3   545  THR545     -0.1218
     60  CA        -0.0960   25.1930   46.4460 C.3   545  THR545      0.1862
     61  C          0.6900   26.1760   45.5720 C.2   545  THR545      0.2287
     62  O          0.9410   27.3260   45.9620 O.2   545  THR545     -0.2866
     63  CB        -1.6210   25.3980   46.3460 C.3   545  THR545      0.1770
     64  OG1       -2.0930   24.8370   45.1200 O.3   545  THR545     -0.2211
     65  CG2       -1.9900   26.8730   46.4320 C.3   545  THR545      0.0375
     66  N          1.0120   27.8060   41.5440 N.3   547  ILE547     -0.1245
     67  CA         0.1810   28.1350   40.3970 C.3   547  ILE547      0.1561
     68  C          0.9440   28.9830   39.3510 C.2   547  ILE547      0.2260
     69  O          1.3910   30.0980   39.6350 O.2   547  ILE547     -0.2867
     70  CB        -1.1340   28.8020   40.8720 C.3   547  ILE547      0.0252
     71  CG1       -2.0540   29.1050   39.6870 C.3   547  ILE547      0.0019
     72  CG2       -0.8400   30.0480   41.6940 C.3   547  ILE547      0.0019
     73  CD1       -3.3870   29.6990   40.1010 C.3   547  ILE547      0.0001
     74  N          0.7210   30.8660   35.6710 N.3   549  GLU549     -0.1245
     75  CA        -0.3410   31.4920   34.8570 C.3   549  GLU549      0.1567
     76  C         -0.3030   31.1280   33.3630 C.2   549  GLU549      0.2260
     77  O         -1.2120   30.4660   32.8570 O.2   549  GLU549     -0.2867
     78  CB        -0.3280   33.0250   35.0040 C.3   549  GLU549      0.0388
     79  CG        -1.0840   33.5590   36.2270 C.3   549  GLU549      0.1160
     80  CD        -0.1780   34.2140   37.2520 C.2   549  GLU549      0.3649
     81  OE1        0.4040   35.2750   36.9390 O.co2 549  GLU549     -0.2457
     82  OE2       -0.0630   33.6800   38.3730 O.co2 549  GLU549     -0.2457
@<TRIPOS>BOND
     1     9    10    1
     2    77    76    2
     3    76    75    1
     4    10    13    1
     5    10    11    1
     6    14    13    1
     7    13    15    1
     8    11    12    2
     9    75    78    1
    10    75    74    1
    11    78    79    1
    12    79    80    1
    13    81    80   ar
    14    80    82   ar
    15    16    17    1
    16    21    23    1
    17    21    20    1
    18    68    69    2
    19    68    67    1
    20    17    20    1
    21    17    18    1
    22    71    73    1
    23    71    70    1
    24    19    18    2
    25    20    22    1
    26    67    70    1
    27    67    66    1
    28    38    39    1
    29    38    37    1
    30    70    72    1
    31    31    32    1
    32    37    36    1
    33    36    35    1
    34    35    32    1
    35    32    33    1
    36    34    33    2
    37    24    25    1
    38    64    63    1
    39    49    50   ar
    40    49    47   ar
    41    25    26    1
    42    25    28    1
    43    50    48   ar
    44    61    62    2
    45    61    60    1
    46    29    28    1
    47    27    26    2
    48    28    30    1
    49    47    45   ar
    50    63    65    1
    51    63    60    1
    52    60    59    1
    53    48    46   ar
    54    40    41    1
    55    45    46   ar
    56    45    44    1
    57    44    41    1
    58    41    42    1
    59    57    56    2
    60    43    42    2
    61    58    56   am
    62     8     6    1
    63    56    55    1
    64     4     3    2
    65     6     5    1
    66     6     7    1
    67     5     2    1
    68     3     2    1
    69    53    54    2
    70    53    52    1
    71    55    52    1
    72    51    52    1
    73     2     1    1
