@<TRIPOS>MOLECULE
tmp/3dmkA01.pdb
 104 98 0 0 0
SMALL
GASTEIGER

@<TRIPOS>ATOM
      1  N        -47.8020   34.4980  109.0710 N.3   246  ARG246     -0.1245
      2  CA       -48.8880   35.4560  108.8810 C.3   246  ARG246      0.1563
      3  C        -48.9870   35.7700  107.3900 C.2   246  ARG246      0.2260
      4  O        -47.9580   35.9740  106.7390 O.2   246  ARG246     -0.2867
      5  CB       -48.5960   36.7380  109.6730 C.3   246  ARG246      0.0307
      6  CG       -48.1440   36.5020  111.1180 C.3   246  ARG246      0.0489
      7  CD       -47.6620   37.7830  111.7910 C.3   246  ARG246      0.2205
      8  NE       -47.0460   37.5190  113.0960 N.pl3 246  ARG246     -0.0865
      9  CZ       -46.6000   38.4550  113.9410 C.cat 246  ARG246      0.5346
     10  NH1      -46.6910   39.7500  113.6380 N.pl3 246  ARG246      0.1354
     11  NH2      -46.0590   38.0950  115.1060 N.pl3 246  ARG246      0.1354
     12  N        -50.6050   38.1950  104.2240 N.3   248  TYR248     -0.1241
     13  CA       -51.1310   39.5100  103.8740 C.3   248  TYR248      0.1605
     14  C        -51.3290   39.5800  102.3670 C.2   248  TYR248      0.2264
     15  O        -50.6180   38.9200  101.6130 O.2   248  TYR248     -0.2867
     16  CB       -50.1560   40.6170  104.3040 C.3   248  TYR248      0.0534
     17  CG       -49.8950   40.6880  105.7950 C.ar  248  TYR248     -0.0201
     18  CD1      -50.5130   41.6510  106.5830 C.ar  248  TYR248     -0.0009
     19  CD2      -49.0250   39.7940  106.4160 C.ar  248  TYR248     -0.0009
     20  CE1      -50.2790   41.7190  107.9540 C.ar  248  TYR248      0.0417
     21  CE2      -48.7850   39.8510  107.7830 C.ar  248  TYR248      0.0417
     22  CZ       -49.4140   40.8150  108.5490 C.ar  248  TYR248      0.1957
     23  OH       -49.1820   40.8810  109.9080 O.3   248  TYR248     -0.2866
     24  N        -51.4770   42.5410   99.3640 N.3   250  PHE250     -0.1241
     25  CA       -51.2600   43.9520   99.0550 C.3   250  PHE250      0.1605
     26  C        -52.4990   44.5520   98.3890 C.2   250  PHE250      0.2264
     27  O        -53.2270   43.8510   97.6810 O.2   250  PHE250     -0.2867
     28  CB       -50.0300   44.1340   98.1610 C.3   250  PHE250      0.0534
     29  CG       -48.7270   44.0140   98.8950 C.ar  250  PHE250     -0.0203
     30  CD1      -48.3200   45.0100   99.7690 C.ar  250  PHE250     -0.0042
     31  CD2      -47.9010   42.9130   98.7100 C.ar  250  PHE250     -0.0042
     32  CE1      -47.1160   44.9100  100.4500 C.ar  250  PHE250     -0.0003
     33  CE2      -46.6930   42.8060   99.3860 C.ar  250  PHE250     -0.0003
     34  CZ       -46.3000   43.8040  100.2550 C.ar  250  PHE250     -0.0000
     35  N        -50.7480   47.0440  102.6720 N.3   257  LYS257     -0.1245
     36  CA       -51.1620   45.6410  102.7320 C.3   257  LYS257      0.1561
     37  C        -52.2510   45.4040  103.7700 C.2   257  LYS257      0.2260
     38  O        -52.2440   46.0180  104.8390 O.2   257  LYS257     -0.2867
     39  CB       -49.9620   44.7320  103.0280 C.3   257  LYS257      0.0271
     40  CG       -49.2140   45.0320  104.3270 C.3   257  LYS257      0.0035
     41  CD       -48.0460   44.0740  104.5190 C.3   257  LYS257      0.0206
     42  CE       -47.2390   44.3950  105.7650 C.3   257  LYS257      0.1093
     43  NZ       -46.5140   45.6900  105.6480 N.3   257  LYS257     -0.1314
     44  N        -48.2560   38.4030  100.3240 N.3   287  LEU287     -0.1245
     45  CA       -47.0390   38.4040  101.1270 C.3   287  LEU287      0.1561
     46  C        -47.2180   37.5360  102.3690 C.2   287  LEU287      0.2260
     47  O        -48.1590   37.7310  103.1340 O.2   287  LEU287     -0.2867
     48  CB       -46.6760   39.8340  101.5300 C.3   287  LEU287      0.0270
     49  CG       -45.6400   40.0130  102.6430 C.3   287  LEU287      0.0019
     50  CD1      -44.3880   39.2060  102.3790 C.3   287  LEU287      0.0001
     51  CD2      -45.2950   41.4730  102.7890 C.3   287  LEU287      0.0001
     52  N        -45.3710   36.5080  105.8810 N.3   289  VAL289     -0.1245
     53  CA       -44.3620   36.8900  106.8500 C.3   289  VAL289      0.1561
     54  C        -44.1910   35.7420  107.8270 C.2   289  VAL289      0.2260
     55  O        -45.1800   35.1960  108.3160 O.2   289  VAL289     -0.2867
     56  CB       -44.7970   38.1450  107.6140 C.3   289  VAL289      0.0252
     57  CG1      -43.7960   38.4860  108.6930 C.3   289  VAL289      0.0019
     58  CG2      -44.9690   39.3040  106.6530 C.3   289  VAL289      0.0019
     59  N        -42.2220   34.8740  111.3920 N.3   291  ASN291     -0.1225
     60  CA       -41.4500   35.3780  112.5370 C.3   291  ASN291      0.1785
     61  C        -41.1660   34.2800  113.5600 C.2   291  ASN291      0.2597
     62  O        -41.8780   33.2790  113.6170 O.2   291  ASN291     -0.2718
     63  CB       -42.2110   36.5060  113.2460 C.3   291  ASN291      0.1169
     64  CG       -42.2370   37.8090  112.4510 C.2   291  ASN291      0.2627
     65  OD1      -42.9940   37.9410  111.4830 O.2   291  ASN291     -0.2716
     66  ND2      -41.4330   38.8010  112.9120 N.am  291  ASN291     -0.0877
     67  N        -40.1190   34.4720  114.3570 N.am  292  ASN292     -0.1974
     68  CA       -39.9460   33.7220  115.6080 C.3   292  ASN292      0.1688
     69  C        -39.1350   34.5430  116.6020 C.2   292  ASN292      0.2292
     70  O        -38.7980   35.6890  116.3180 O.2   292  ASN292     -0.2864
     71  CB       -39.3350   32.3320  115.3640 C.3   292  ASN292      0.1181
     72  CG       -37.8180   32.3360  115.3040 C.2   292  ASN292      0.2629
     73  OD1      -37.1800   33.3820  115.1550 O.2   292  ASN292     -0.2716
     74  ND2      -37.2290   31.1450  115.4170 N.am  292  ASN292     -0.0877
     75  N        -36.1000   34.6400  117.4100 N.3   294  VAL294     -0.1231
     76  CA       -34.7850   35.0780  116.9410 C.3   294  VAL294      0.1692
     77  C        -34.8970   36.1070  115.8230 C.2   294  VAL294      0.2593
     78  O        -34.3360   37.1920  115.9270 O.2   294  VAL294     -0.2718
     79  CB       -33.9370   33.8930  116.4460 C.3   294  VAL294      0.0266
     80  CG1      -32.6410   34.3830  115.8370 C.3   294  VAL294      0.0020
     81  CG2      -33.6490   32.9380  117.5910 C.3   294  VAL294      0.0020
     82  N        -35.6170   35.7660  114.7580 N.am  295  GLY295     -0.1942
     83  CA       -35.7180   36.6530  113.5940 C.3   295  GLY295      0.2014
     84  C        -36.9830   36.5000  112.7650 C.2   295  GLY295      0.2639
     85  O        -37.9250   35.8040  113.1630 O.2   295  GLY295     -0.2714
     86  N        -36.9990   37.1630  111.6080 N.am  296  GLY296     -0.1939
     87  CA       -38.1510   37.1360  110.7030 C.3   296  GLY296      0.2014
     88  C        -37.7750   37.1940  109.2290 C.2   296  GLY296      0.2639
     89  O        -36.9320   37.9980  108.8270 O.2   296  GLY296     -0.2714
     90  N        -38.4090   36.3380  108.4270 N.am  297  GLU297     -0.1963
     91  CA       -38.1770   36.2650  106.9820 C.3   297  GLU297      0.1733
     92  C        -39.5130   36.4220  106.2660 C.2   297  GLU297      0.2617
     93  O        -40.5670   36.2550  106.8870 O.2   297  GLU297     -0.2715
     94  CB       -37.5500   34.9110  106.6340 C.3   297  GLU297      0.0429
     95  CG       -37.0060   34.7890  105.2210 C.3   297  GLU297      0.1163
     96  CD       -35.8350   35.7140  104.9730 C.2   297  GLU297      0.3649
     97  OE1      -34.7480   35.4650  105.5480 O.co2 297  GLU297     -0.2457
     98  OE2      -36.0020   36.6870  104.2040 O.co2 297  GLU297     -0.2457
     99  N        -39.4810   36.7540  104.9740 N.am  298  SER298     -0.1950
    100  CA       -40.7190   36.9540  104.2080 C.3   298  SER298      0.1924
    101  C        -40.6390   36.4930  102.7550 C.2   298  SER298      0.2314
    102  O        -39.6100   36.6630  102.1100 O.2   298  SER298     -0.2863
    103  CB       -41.0990   38.4330  104.2270 C.3   298  SER298      0.2116
    104  OG       -40.1460   39.2100  103.5150 O.3   298  SER298     -0.2180
@<TRIPOS>BOND
     1    27    26    2
     2    28    29    1
     3    28    25    1
     4    26    25    1
     5    31    29   ar
     6    31    33   ar
     7    29    30   ar
     8    25    24    1
     9    33    34   ar
    10    30    32   ar
    11    34    32   ar
    12    44    45    1
    13    45    48    1
    14    45    46    1
    15    48    49    1
    16    15    14    2
    17   102   101    2
    18    14    13    1
    19    46    47    2
    20    50    49    1
    21    49    51    1
    22    35    36    1
    23    36    39    1
    24    36    37    1
    25   101   100    1
    26    39    40    1
    27   104   103    1
    28    37    38    2
    29    13    12    1
    30    13    16    1
    31    98    96   ar
    32   100   103    1
    33   100    99    1
    34    16    17    1
    35    40    41    1
    36    41    42    1
    37    96    95    1
    38    96    97   ar
    39    99    92   am
    40    95    94    1
    41    43    42    1
    42    17    19   ar
    43    17    18   ar
    44    52    53    1
    45    92    93    2
    46    92    91    1
    47    19    21   ar
    48    18    20   ar
    49    94    91    1
    50    58    56    1
    51     4     3    2
    52    53    56    1
    53    53    54    1
    54    91    90    1
    55     3     2    1
    56    56    57    1
    57    21    22   ar
    58    54    55    2
    59    20    22   ar
    60    90    88   am
    61    22    23    1
    62    89    88    2
    63     2     1    1
    64     2     5    1
    65    88    87    1
    66     5     6    1
    67    87    86    1
    68     6     7    1
    69    59    60    1
    70    65    64    2
    71    86    84   am
    72     7     8    1
    73    64    66   am
    74    64    63    1
    75    60    63    1
    76    60    61    1
    77    84    85    2
    78    84    83    1
    79     8     9    2
    80    61    62    2
    81    61    67   am
    82    83    82    1
    83    10     9    1
    84     9    11    1
    85    67    68    1
    86    82    77   am
    87    73    72    2
    88    72    71    1
    89    72    74   am
    90    71    68    1
    91    68    69    1
    92    77    78    2
    93    77    76    1
    94    80    79    1
    95    70    69    2
    96    79    76    1
    97    79    81    1
    98    76    75    1
