@<TRIPOS>MOLECULE
tmp/3dmkC00.pdb
 84 82 0 0 0
SMALL
GASTEIGER

@<TRIPOS>ATOM
      1  N        -14.6020    7.5760   59.7260 N.3   413  PHE413     -0.1241
      2  CA       -15.8200    7.4610   58.9440 C.3   413  PHE413      0.1605
      3  C        -16.2780    8.8320   58.4500 C.2   413  PHE413      0.2264
      4  O        -16.9100    9.5900   59.1900 O.2   413  PHE413     -0.2867
      5  CB       -16.9030    6.7970   59.7930 C.3   413  PHE413      0.0534
      6  CG       -16.4520    5.5370   60.4480 C.ar  413  PHE413     -0.0203
      7  CD1      -16.1280    4.4390   59.6860 C.ar  413  PHE413     -0.0042
      8  CD2      -16.3320    5.4510   61.8200 C.ar  413  PHE413     -0.0042
      9  CE1      -15.7000    3.2650   60.2740 C.ar  413  PHE413     -0.0003
     10  CE2      -15.9050    4.2820   62.4190 C.ar  413  PHE413     -0.0003
     11  CZ       -15.5890    3.1850   61.6450 C.ar  413  PHE413     -0.0000
     12  N        -12.6810    1.8320   52.2730 N.3   442  GLN442     -0.1231
     13  CA       -13.9310    1.2840   51.7790 C.3   442  GLN442      0.1698
     14  C        -14.8050    2.4850   51.4700 C.2   442  GLN442      0.2592
     15  O        -14.8720    3.4200   52.2720 O.2   442  GLN442     -0.2718
     16  CB       -14.5750    0.3970   52.8400 C.3   442  GLN442      0.0381
     17  CG       -13.6710   -0.7370   53.3390 C.3   442  GLN442      0.0905
     18  CD       -14.2400   -1.4780   54.5530 C.2   442  GLN442      0.2608
     19  OE1      -14.7250   -0.8610   55.5110 O.2   442  GLN442     -0.2717
     20  NE2      -14.1650   -2.8070   54.5220 N.am  442  GLN442     -0.0878
     21  N        -15.4410    2.4880   50.3020 N.am  443  VAL443     -0.1966
     22  CA       -16.2770    3.6150   49.8980 C.3   443  VAL443      0.1727
     23  C        -17.6480    3.1230   49.5090 C.2   443  VAL443      0.2616
     24  O        -17.7700    2.2430   48.6610 O.2   443  VAL443     -0.2715
     25  CB       -15.6760    4.3700   48.7120 C.3   443  VAL443      0.0290
     26  CG1      -16.5550    5.5380   48.3480 C.3   443  VAL443      0.0023
     27  CG2      -14.2820    4.8470   49.0450 C.3   443  VAL443      0.0023
     28  N        -18.6760    3.6990   50.1250 N.am  444  GLY444     -0.1955
     29  CA       -20.0550    3.2780   49.8920 C.3   444  GLY444      0.1869
     30  C        -20.9740    4.4180   49.4960 C.2   444  GLY444      0.2309
     31  O        -20.6220    5.5980   49.6360 O.2   444  GLY444     -0.2863
     32  N        -25.4990    4.7570   49.2110 N.3   446  TYR446     -0.1227
     33  CA       -26.8960    4.3380   49.0150 C.3   446  TYR446      0.1736
     34  C        -27.8110    5.5580   48.8940 C.2   446  TYR446      0.2595
     35  O        -27.3560    6.6990   49.0150 O.2   446  TYR446     -0.2718
     36  CB       -27.3680    3.4090   50.1440 C.3   446  TYR446      0.0548
     37  CG       -27.4940    4.0670   51.5030 C.ar  446  TYR446     -0.0200
     38  CD1      -26.4680    3.9730   52.4400 C.ar  446  TYR446     -0.0009
     39  CD2      -28.6440    4.7700   51.8570 C.ar  446  TYR446     -0.0009
     40  CE1      -26.5760    4.5680   53.6900 C.ar  446  TYR446      0.0417
     41  CE2      -28.7620    5.3700   53.1050 C.ar  446  TYR446      0.0417
     42  CZ       -27.7210    5.2630   54.0200 C.ar  446  TYR446      0.1957
     43  OH       -27.8140    5.8500   55.2640 O.3   446  TYR446     -0.2866
     44  N        -29.0970    5.3120   48.6470 N.am  447  VAL447     -0.1966
     45  CA       -30.0750    6.3870   48.5070 C.3   447  VAL447      0.1727
     46  C        -31.1680    6.2630   49.5600 C.2   447  VAL447      0.2617
     47  O        -31.7430    5.1920   49.7460 O.2   447  VAL447     -0.2715
     48  CB       -30.7230    6.3800   47.1080 C.3   447  VAL447      0.0290
     49  CG1      -31.7330    7.5190   46.9770 C.3   447  VAL447      0.0023
     50  CG2      -29.6530    6.4940   46.0280 C.3   447  VAL447      0.0023
     51  N        -31.4520    7.3740   50.2340 N.am  448  THR448     -0.1937
     52  CA       -32.4760    7.4220   51.2720 C.3   448  THR448      0.2028
     53  C        -33.8810    7.4420   50.6810 C.2   448  THR448      0.2642
     54  O        -34.0720    7.7990   49.5150 O.2   448  THR448     -0.2714
     55  CB       -32.3210    8.6780   52.1460 C.3   448  THR448      0.1808
     56  OG1      -32.2700    9.8410   51.3050 O.3   448  THR448     -0.2208
     57  CG2      -31.0530    8.5940   52.9780 C.3   448  THR448      0.0379
     58  N        -34.8610    7.0870   51.5110 N.am  449  VAL449     -0.1977
     59  CA       -36.2770    7.0790   51.1180 C.3   449  VAL449      0.1596
     60  C        -36.7200    8.4180   50.5260 C.2   449  VAL449      0.2287
     61  O        -37.5690    8.4620   49.6270 O.2   449  VAL449     -0.2864
     62  CB       -37.1890    6.7740   52.3260 C.3   449  VAL449      0.0276
     63  CG1      -38.6540    6.7260   51.9000 C.3   449  VAL449      0.0022
     64  CG2      -36.7840    5.4670   52.9860 C.3   449  VAL449      0.0022
     65  N        -20.6400    7.1460   52.1060 N.3   456  TYR456     -0.1241
     66  CA       -19.6820    7.0360   53.1870 C.3   456  TYR456      0.1605
     67  C        -18.2980    6.7540   52.6150 C.2   456  TYR456      0.2264
     68  O        -18.1680    6.1000   51.5690 O.2   456  TYR456     -0.2867
     69  CB       -20.0980    5.9250   54.1640 C.3   456  TYR456      0.0534
     70  CG       -20.8280    6.4170   55.4040 C.ar  456  TYR456     -0.0201
     71  CD1      -20.1420    7.0730   56.4240 C.ar  456  TYR456     -0.0009
     72  CD2      -22.1970    6.2040   55.5690 C.ar  456  TYR456     -0.0009
     73  CE1      -20.8020    7.5180   57.5750 C.ar  456  TYR456      0.0417
     74  CE2      -22.8680    6.6440   56.7180 C.ar  456  TYR456      0.0417
     75  CZ       -22.1640    7.2990   57.7170 C.ar  456  TYR456      0.1957
     76  OH       -22.8210    7.7330   58.8530 O.3   456  TYR456     -0.2866
     77  N        -15.1930    5.0690   54.5210 N.3   458  ASN458     -0.1240
     78  CA       -14.6730    4.4360   55.7150 C.3   458  ASN458      0.1653
     79  C        -13.2270    4.0590   55.5170 C.2   458  ASN458      0.2266
     80  O        -12.8890    3.3410   54.5710 O.2   458  ASN458     -0.2867
     81  CB       -15.4730    3.1800   56.0420 C.3   458  ASN458      0.1155
     82  CG       -16.9070    3.4860   56.3940 C.2   458  ASN458      0.2627
     83  OD1      -17.3170    4.6490   56.4170 O.2   458  ASN458     -0.2716
     84  ND2      -17.6810    2.4430   56.6800 N.am  458  ASN458     -0.0877
@<TRIPOS>BOND
     1    50    48    1
     2    49    48    1
     3    48    45    1
     4    26    25    1
     5    45    44    1
     6    45    46    1
     7    44    34   am
     8    24    23    2
     9    25    27    1
    10    25    22    1
    11    34    35    2
    12    34    33    1
    13    33    32    1
    14    33    36    1
    15    30    31    2
    16    30    29    1
    17    23    22    1
    18    23    28   am
    19    54    53    2
    20    46    47    2
    21    46    51   am
    22    61    60    2
    23    29    28    1
    24    22    21    1
    25    36    37    1
    26    51    52    1
    27    21    14   am
    28    60    59    1
    29    53    52    1
    30    53    58   am
    31    59    58    1
    32    59    62    1
    33    52    55    1
    34    56    55    1
    35    14    13    1
    36    14    15    2
    37    37    39   ar
    38    37    38   ar
    39    68    67    2
    40    13    12    1
    41    13    16    1
    42    39    41   ar
    43    63    62    1
    44    65    66    1
    45    55    57    1
    46    62    64    1
    47    38    40   ar
    48    67    66    1
    49    16    17    1
    50    41    42   ar
    51    66    69    1
    52    17    18    1
    53    40    42   ar
    54    42    43    1
    55    69    70    1
    56    77    78    1
    57    20    18   am
    58    18    19    2
    59    80    79    2
    60    70    72   ar
    61    70    71   ar
    62    79    78    1
    63    72    74   ar
    64    78    81    1
    65    81    82    1
    66    82    83    2
    67    82    84   am
    68    71    73   ar
    69    74    75   ar
    70    73    75   ar
    71    75    76    1
    72     3     2    1
    73     3     4    2
    74     2     1    1
    75     2     5    1
    76     7     9   ar
    77     7     6   ar
    78     5     6    1
    79     9    11   ar
    80     6     8   ar
    81    11    10   ar
    82     8    10   ar
