@<TRIPOS>MOLECULE
tmp/3dn2A00.pdb
 97 89 0 0 0
SMALL
GASTEIGER

@<TRIPOS>ATOM
      1  N         24.0910    7.3320   12.2180 N.3    78  ILE78      -0.1245
      2  CA        23.7130    6.6520   10.9780 C.3    78  ILE78       0.1561
      3  C         22.4950    5.7550   11.2060 C.2    78  ILE78       0.2260
      4  O         21.5150    5.8130   10.4480 O.2    78  ILE78      -0.2867
      5  CB        24.8930    5.8210   10.3920 C.3    78  ILE78       0.0252
      6  CG1       25.9910    6.7600    9.8680 C.3    78  ILE78       0.0019
      7  CG2       24.4040    4.8920    9.2780 C.3    78  ILE78       0.0019
      8  CD1       27.3390    6.0950    9.6090 C.3    78  ILE78       0.0001
      9  N         19.9470    7.1680    6.0190 N.3    84  LEU84      -0.1245
     10  CA        21.2910    6.5960    6.0390 C.3    84  LEU84       0.1561
     11  C         21.3330    5.1200    6.4190 C.2    84  LEU84       0.2260
     12  O         22.1230    4.3590    5.8580 O.2    84  LEU84      -0.2867
     13  CB        22.2020    7.3980    6.9770 C.3    84  LEU84       0.0270
     14  CG        22.3270    8.8980    6.6940 C.3    84  LEU84       0.0019
     15  CD1       23.1650    9.5790    7.7690 C.3    84  LEU84       0.0001
     16  CD2       22.8940    9.1660    5.2950 C.3    84  LEU84       0.0001
     17  N         21.1220    2.3430    3.5980 N.3    87  VAL87      -0.1231
     18  CA        22.3120    2.2990    2.7520 C.3    87  VAL87       0.1692
     19  C         23.4620    1.6550    3.5240 C.2    87  VAL87       0.2592
     20  O         24.1350    0.7580    3.0170 O.2    87  VAL87      -0.2718
     21  CB        22.6970    3.6970    2.2210 C.3    87  VAL87       0.0266
     22  CG1       23.8570    3.5950    1.2300 C.3    87  VAL87       0.0020
     23  CG2       21.4870    4.3650    1.5640 C.3    87  VAL87       0.0020
     24  N         23.6450    2.0890    4.7690 N.am   88  TYR88      -0.1976
     25  CA        24.6600    1.5110    5.6540 C.3    88  TYR88       0.1639
     26  C         24.4710   -0.0030    5.8240 C.2    88  TYR88       0.2290
     27  O         25.4200   -0.7720    5.6750 O.2    88  TYR88      -0.2864
     28  CB        24.6140    2.2100    7.0110 C.3    88  TYR88       0.0560
     29  CG        25.6990    1.7820    7.9640 C.ar   88  TYR88      -0.0198
     30  CD1       26.9610    2.3820    7.9310 C.ar   88  TYR88      -0.0009
     31  CD2       25.4640    0.7870    8.9080 C.ar   88  TYR88      -0.0009
     32  CE1       27.9620    1.9910    8.8150 C.ar   88  TYR88       0.0417
     33  CE2       26.4580    0.3880    9.7920 C.ar   88  TYR88       0.0417
     34  CZ        27.6980    0.9910    9.7390 C.ar   88  TYR88       0.1957
     35  OH        28.6720    0.5960   10.6170 O.3    88  TYR88      -0.2866
     36  N         25.6770   -2.2540    2.9660 N.3    91  LEU91      -0.1245
     37  CA        27.1130   -2.2730    2.6850 C.3    91  LEU91       0.1561
     38  C         27.8560   -3.3900    3.4130 C.2    91  LEU91       0.2260
     39  O         27.4050   -3.8700    4.4590 O.2    91  LEU91      -0.2867
     40  CB        27.7500   -0.9200    3.0480 C.3    91  LEU91       0.0270
     41  CG        27.3180    0.3410    2.2860 C.3    91  LEU91       0.0019
     42  CD1       27.8670    1.5870    2.9900 C.3    91  LEU91       0.0001
     43  CD2       27.7640    0.3040    0.8270 C.3    91  LEU91       0.0001
     44  N         31.5830    5.0470    5.0370 N.3    99  ALA99      -0.1245
     45  CA        30.3710    5.7480    5.4770 C.3    99  ALA99       0.1562
     46  C         30.5640    6.4690    6.8110 C.2    99  ALA99       0.2260
     47  O         30.2130    7.6520    6.9440 O.2    99  ALA99      -0.2867
     48  CB        29.2060    4.7580    5.5840 C.3    99  ALA99       0.0290
     49  N         32.8490    9.5950    6.4600 N.3   102  MET102     -0.1230
     50  CA        32.1020   10.7540    5.9670 C.3   102  MET102      0.1702
     51  C         31.2530   11.4330    7.0440 C.2   102  MET102      0.2592
     52  O         31.3050   12.6570    7.1900 O.2   102  MET102     -0.2718
     53  CB        31.2290   10.3610    4.7700 C.3   102  MET102      0.0401
     54  CG        32.0140    9.9740    3.5250 C.3   102  MET102      0.0596
     55  SD        30.9650    9.8040    2.0660 S.3   102  MET102     -0.1393
     56  CE        30.6420   11.5120    1.6430 C.3   102  MET102      0.0692
     57  N         30.4760   10.6480    7.7930 N.am  103  VAL103     -0.1980
     58  CA        29.6620   11.1930    8.8940 C.3   103  VAL103      0.1595
     59  C         30.5350   11.8480    9.9770 C.2   103  VAL103      0.2287
     60  O         30.2040   12.9320   10.4760 O.2   103  VAL103     -0.2864
     61  CB        28.7040   10.1250    9.5080 C.3   103  VAL103      0.0276
     62  CG1       28.0410   10.6470   10.7970 C.3   103  VAL103      0.0022
     63  CG2       27.6410    9.7430    8.5030 C.3   103  VAL103      0.0022
     64  N         25.9360   15.5580    5.1520 N.3   111  VAL111     -0.1245
     65  CA        25.6920   14.4700    4.2060 C.3   111  VAL111      0.1561
     66  C         24.2560   14.4590    3.6510 C.2   111  VAL111      0.2260
     67  O         23.9170   13.6400    2.7880 O.2   111  VAL111     -0.2867
     68  CB        26.1050   13.0910    4.7920 C.3   111  VAL111      0.0252
     69  CG1       25.1750   12.6580    5.9230 C.3   111  VAL111      0.0019
     70  CG2       26.1450   12.0530    3.6970 C.3   111  VAL111      0.0019
     71  N         24.0170    8.1070   -2.3070 N.3   118  LEU118     -0.1245
     72  CA        23.4760    7.0640   -1.4290 C.3   118  LEU118      0.1561
     73  C         22.6940    6.0110   -2.2070 C.2   118  LEU118      0.2260
     74  O         22.8690    4.8060   -1.9890 O.2   118  LEU118     -0.2867
     75  CB        22.5870    7.6820   -0.3420 C.3   118  LEU118      0.0270
     76  CG        23.2970    8.4540    0.7690 C.3   118  LEU118      0.0019
     77  CD1       22.3290    9.3860    1.4810 C.3   118  LEU118      0.0001
     78  CD2       23.9000    7.4890    1.7510 C.3   118  LEU118      0.0001
     79  N         25.1480    3.8740   -4.2090 N.3   121  LEU121     -0.1245
     80  CA        25.8440    2.9580   -3.2980 C.3   121  LEU121      0.1561
     81  C         24.9540    1.7760   -2.9000 C.2   121  LEU121      0.2260
     82  O         25.4140    0.6360   -2.8760 O.2   121  LEU121     -0.2867
     83  CB        26.3690    3.6950   -2.0570 C.3   121  LEU121      0.0270
     84  CG        27.5510    4.6570   -2.2920 C.3   121  LEU121      0.0019
     85  CD1       27.7980    5.5390   -1.0710 C.3   121  LEU121      0.0001
     86  CD2       28.8240    3.9100   -2.6710 C.3   121  LEU121      0.0001
     87  N         34.9600    3.2100   -1.1750 N.3   153  PHE153     -0.1241
     88  CA        33.6160    2.9090   -1.6770 C.3   153  PHE153      0.1605
     89  C         33.6430    2.2230   -3.0360 C.2   153  PHE153      0.2264
     90  O         32.8040    1.3670   -3.3160 O.2   153  PHE153     -0.2867
     91  CB        32.7690    4.1800   -1.8170 C.3   153  PHE153      0.0534
     92  CG        32.1040    4.6340   -0.5470 C.ar  153  PHE153     -0.0203
     93  CD1       31.2560    3.7850    0.1690 C.ar  153  PHE153     -0.0042
     94  CD2       32.2680    5.9450   -0.1040 C.ar  153  PHE153     -0.0042
     95  CE1       30.6230    4.2270    1.3260 C.ar  153  PHE153     -0.0003
     96  CE2       31.6430    6.3990    1.0600 C.ar  153  PHE153     -0.0003
     97  CZ        30.8170    5.5390    1.7750 C.ar  153  PHE153     -0.0000
@<TRIPOS>BOND
     1    79    80    1
     2    90    89    2
     3    80    81    1
     4    80    83    1
     5    89    88    1
     6    81    82    2
     7    86    84    1
     8    71    72    1
     9    84    83    1
    10    84    85    1
    11    73    74    2
    12    73    72    1
    13    91    88    1
    14    91    92    1
    15    88    87    1
    16    72    75    1
    17    92    94   ar
    18    92    93   ar
    19    75    76    1
    20    94    96   ar
    21    93    95   ar
    22    76    77    1
    23    76    78    1
    24    43    41    1
    25    96    97   ar
    26    22    21    1
    27    95    97   ar
    28    23    21    1
    29    56    55    1
    30    55    54    1
    31    21    18    1
    32    41    42    1
    33    41    40    1
    34    37    36    1
    35    37    40    1
    36    37    38    1
    37    18    19    1
    38    18    17    1
    39    67    66    2
    40    20    19    2
    41    38    39    2
    42    19    24   am
    43    54    53    1
    44    66    65    1
    45    70    68    1
    46    65    68    1
    47    65    64    1
    48    24    25    1
    49    53    50    1
    50    68    69    1
    51    44    45    1
    52    16    14    1
    53    45    48    1
    54    45    46    1
    55    25    26    1
    56    25    28    1
    57    27    26    2
    58    12    11    2
    59    50    49    1
    60    50    51    1
    61     9    10    1
    62    10    11    1
    63    10    13    1
    64    14    13    1
    65    14    15    1
    66    46    47    2
    67    28    29    1
    68    51    52    2
    69    51    57   am
    70    57    58    1
    71    30    29   ar
    72    30    32   ar
    73    29    31   ar
    74    63    61    1
    75    32    34   ar
    76    58    61    1
    77    58    59    1
    78    31    33   ar
    79     7     5    1
    80    61    62    1
    81     8     6    1
    82    34    33   ar
    83    34    35    1
    84     6     5    1
    85    59    60    2
    86     5     2    1
    87     4     3    2
    88     2     3    1
    89     2     1    1
