@<TRIPOS>MOLECULE
tmp/3dn5A01.pdb
 187 191 0 0 0
SMALL
GASTEIGER

@<TRIPOS>ATOM
      1  N         21.4350   20.1410  -10.3640 N.3    20  TRP20      -0.1241
      2  CA        21.9490   18.7660  -10.4350 C.3    20  TRP20       0.1605
      3  C         23.4140   18.7690  -10.8860 C.2    20  TRP20       0.2264
      4  O         23.7240   19.3850  -11.9000 O.2    20  TRP20      -0.2867
      5  CB        21.0950   17.9210  -11.3780 C.3    20  TRP20       0.0550
      6  CG        21.5760   16.5130  -11.5800 C.ar   20  TRP20       0.0003
      7  CD1       22.0800   15.6540  -10.6070 C.ar   20  TRP20       0.0946
      8  CD2       21.6150   15.7820  -12.8160 C.ar   20  TRP20       0.0152
      9  NE1       22.4200   14.4450  -11.1750 N.ar   20  TRP20      -0.2442
     10  CE2       22.1450   14.5120  -12.5300 C.ar   20  TRP20       0.0810
     11  CE3       21.2620   16.0560  -14.1600 C.ar   20  TRP20       0.0012
     12  CZ2       22.3120   13.5560  -13.5330 C.ar   20  TRP20       0.0191
     13  CZ3       21.4350   15.1150  -15.1320 C.ar   20  TRP20       0.0001
     14  CH2       21.9670   13.8500  -14.8170 C.ar   20  TRP20       0.0015
     15  N         18.0700   14.5770   -3.6320 N.3    47  VAL47      -0.1231
     16  CA        19.0110   13.6040   -4.1810 C.3    47  VAL47       0.1692
     17  C         20.2440   14.2990   -4.7200 C.2    47  VAL47       0.2592
     18  O         21.2670   13.6360   -4.9400 O.2    47  VAL47      -0.2718
     19  CB        18.2940   12.7420   -5.2410 C.3    47  VAL47       0.0266
     20  CG1       18.1020   13.4640   -6.5550 C.3    47  VAL47       0.0020
     21  CG2       19.0690   11.4440   -5.5330 C.3    47  VAL47       0.0020
     22  N         20.2100   15.6060   -5.0010 N.am   48  TYR48      -0.1976
     23  CA        21.3750   16.2880   -5.5430 C.3    48  TYR48       0.1639
     24  C         22.4480   16.5040   -4.4580 C.2    48  TYR48       0.2290
     25  O         23.5840   16.8390   -4.8330 O.2    48  TYR48      -0.2864
     26  CB        21.0130   17.6370   -6.1750 C.3    48  TYR48       0.0560
     27  CG        20.0040   17.5290   -7.2950 C.ar   48  TYR48      -0.0198
     28  CD1       19.6840   16.3370   -7.9400 C.ar   48  TYR48      -0.0009
     29  CD2       19.3350   18.6670   -7.7470 C.ar   48  TYR48      -0.0009
     30  CE1       18.7670   16.2760   -8.9680 C.ar   48  TYR48       0.0417
     31  CE2       18.4160   18.6080   -8.7640 C.ar   48  TYR48       0.0417
     32  CZ        18.0990   17.4330   -9.4030 C.ar   48  TYR48       0.1957
     33  OH        17.1500   17.3430  -10.4380 O.3    48  TYR48      -0.2866
     34  N         12.3620   12.4290   -3.1690 N.3    79  TRP79      -0.1227
     35  CA        13.0930   11.3500   -3.8550 C.3    79  TRP79       0.1737
     36  C         12.3260   10.0380   -3.8170 C.2    79  TRP79       0.2595
     37  O         11.3600    9.8390   -3.0690 O.2    79  TRP79      -0.2718
     38  CB        14.5500   11.2920   -3.3060 C.3    79  TRP79       0.0564
     39  CG        15.2960   10.1880   -4.0390 C.ar   79  TRP79       0.0003
     40  CD1       15.7800    9.0180   -3.5310 C.ar   79  TRP79       0.0946
     41  CD2       15.5610   10.1680   -5.4630 C.ar   79  TRP79       0.0152
     42  NE1       16.3520    8.2940   -4.5540 N.ar   79  TRP79      -0.2442
     43  CE2       16.2460    8.9640   -5.7500 C.ar   79  TRP79       0.0810
     44  CE3       15.3240   11.0530   -6.5050 C.ar   79  TRP79       0.0012
     45  CZ2       16.6860    8.5930   -7.0140 C.ar   79  TRP79       0.0191
     46  CZ3       15.7490   10.7030   -7.7720 C.ar   79  TRP79       0.0001
     47  CH2       16.4330    9.4930   -8.0410 C.ar   79  TRP79       0.0015
     48  N         12.6730    9.0790   -4.6730 N.am   80  CYS80      -0.1970
     49  CA        11.9960    7.8360   -4.9400 C.3    80  CYS80       0.1712
     50  C         11.9010    6.9170   -3.7160 C.2    80  CYS80       0.2296
     51  O         10.9580    6.1310   -3.5940 O.2    80  CYS80      -0.2864
     52  CB        12.6520    7.0860   -6.0850 C.3    80  CYS80       0.0983
     53  SG        12.7030    8.0600   -7.6260 S.3    80  CYS80      -0.0798
     54  N          9.6050   13.4640   -7.6510 N.3   110  HIS110     -0.1226
     55  CA        10.7250   13.5210   -8.6020 C.3   110  HIS110      0.1752
     56  C         10.5980   12.5460   -9.7740 C.2   110  HIS110      0.2596
     57  O         10.9460   12.9250  -10.9240 O.2   110  HIS110     -0.2718
     58  CB        12.0170   13.2570   -7.8500 C.3   110  HIS110      0.0759
     59  CG        13.2780   13.7800   -8.4120 C.ar  110  HIS110      0.0818
     60  ND1       14.3510   14.1920   -7.6470 N.ar  110  HIS110     -0.2268
     61  CD2       13.6580   13.9630   -9.7230 C.ar  110  HIS110      0.1154
     62  CE1       15.3270   14.5860   -8.4370 C.ar  110  HIS110      0.1986
     63  NE2       14.9400   14.4620   -9.7110 N.ar  110  HIS110     -0.2212
     64  N         10.1530   11.3320   -9.4810 N.am  111  TRP111     -0.1976
     65  CA         9.9190   10.2830  -10.4810 C.3   111  TRP111      0.1640
     66  C          8.6690    9.5220  -10.0730 C.2   111  TRP111      0.2290
     67  O          8.3820    9.4470   -8.8620 O.2   111  TRP111     -0.2864
     68  CB        11.0680    9.2550  -10.5980 C.3   111  TRP111      0.0576
     69  CG        12.2740    9.9100  -11.2430 C.ar  111  TRP111      0.0006
     70  CD1       13.2570   10.6760  -10.6590 C.ar  111  TRP111      0.0946
     71  CD2       12.6230    9.8640  -12.6450 C.ar  111  TRP111      0.0152
     72  NE1       14.1650   11.0780  -11.5930 N.ar  111  TRP111     -0.2442
     73  CE2       13.8100   10.6050  -12.8260 C.ar  111  TRP111      0.0810
     74  CE3       12.0550    9.2600  -13.7490 C.ar  111  TRP111      0.0012
     75  CZ2       14.4240   10.7600  -14.0610 C.ar  111  TRP111      0.0191
     76  CZ3       12.6560    9.4100  -14.9920 C.ar  111  TRP111      0.0001
     77  CH2       13.8300   10.1470  -15.1430 C.ar  111  TRP111      0.0015
     78  N          8.2780    6.4370   -9.9790 N.3   113  THR113     -0.1218
     79  CA         8.7310    5.1620   -9.4560 C.3   113  THR113      0.1862
     80  C          9.1370    5.2510   -8.0010 C.2   113  THR113      0.2287
     81  O         10.0960    5.9720   -7.6700 O.2   113  THR113     -0.2866
     82  CB         9.9670    4.6780  -10.2650 C.3   113  THR113      0.1770
     83  OG1       10.9200    5.7510  -10.3020 O.3   113  THR113     -0.2211
     84  CG2        9.6360    4.3850  -11.7200 C.3   113  THR113      0.0375
     85  N         11.0140    3.5690   -4.8410 N.3   115  PHE115     -0.1241
     86  CA        12.0810    2.6470   -4.5320 C.3   115  PHE115      0.1605
     87  C         12.0480    2.2120   -3.0680 C.2   115  PHE115      0.2264
     88  O         11.5370    2.9520   -2.2170 O.2   115  PHE115     -0.2867
     89  CB        13.4570    3.2760   -4.7970 C.3   115  PHE115      0.0534
     90  CG        13.7830    3.7500   -6.2110 C.ar  115  PHE115     -0.0203
     91  CD1       12.9920    3.4430   -7.3080 C.ar  115  PHE115     -0.0042
     92  CD2       14.9090    4.5200   -6.4280 C.ar  115  PHE115     -0.0042
     93  CE1       13.3750    3.8960   -8.5500 C.ar  115  PHE115     -0.0003
     94  CE2       15.3520    4.9620   -7.6590 C.ar  115  PHE115     -0.0003
     95  CZ        14.5420    4.6110   -8.7380 C.ar  115  PHE115     -0.0000
     96  N         19.5980    4.6870   -4.8170 N.3   122  PHE122     -0.1241
     97  CA        19.2780    3.7520   -5.8770 C.3   122  PHE122      0.1605
     98  C         19.5880    2.3220   -5.3990 C.2   122  PHE122      0.2264
     99  O         20.6180    1.7460   -5.7410 O.2   122  PHE122     -0.2867
    100  CB        20.0270    4.0590   -7.1630 C.3   122  PHE122      0.0534
    101  CG        19.7580    5.3900   -7.8350 C.ar  122  PHE122     -0.0203
    102  CD1       18.8210    5.5040   -8.8480 C.ar  122  PHE122     -0.0042
    103  CD2       20.4420    6.5360   -7.4700 C.ar  122  PHE122     -0.0042
    104  CE1       18.5990    6.7130   -9.4790 C.ar  122  PHE122     -0.0003
    105  CE2       20.2330    7.7630   -8.0880 C.ar  122  PHE122     -0.0003
    106  CZ        19.3010    7.8390   -9.1060 C.ar  122  PHE122     -0.0000
    107  N         13.6440   20.4030  -18.4290 N.3   209  TYR209     -0.1241
    108  CA        14.9710   20.1670  -17.8690 C.3   209  TYR209      0.1605
    109  C         15.9340   19.6760  -18.9410 C.2   209  TYR209      0.2264
    110  O         15.5560   19.2420  -20.0240 O.2   209  TYR209     -0.2867
    111  CB        14.8740   19.2120  -16.6920 C.3   209  TYR209      0.0534
    112  CG        14.6520   17.7380  -16.7230 C.ar  209  TYR209     -0.0201
    113  CD1       15.5630   16.8720  -17.3380 C.ar  209  TYR209     -0.0009
    114  CD2       13.5400   17.1160  -16.1690 C.ar  209  TYR209     -0.0009
    115  CE1       15.4230   15.5150  -17.4310 C.ar  209  TYR209      0.0417
    116  CE2       13.3790   15.7310  -16.1830 C.ar  209  TYR209      0.0417
    117  CZ        14.3220   14.9210  -16.8140 C.ar  209  TYR209      0.1957
    118  OH        14.2580   13.5400  -16.8510 O.3   209  TYR209     -0.2866
    119  N         26.7350    9.5250  -17.4950 N.3   219  TRP219     -0.1241
    120  CA        26.7630    8.3300  -18.3220 C.3   219  TRP219      0.1605
    121  C         26.9210    8.6650  -19.8060 C.2   219  TRP219      0.2264
    122  O         26.6360    7.8680  -20.7010 O.2   219  TRP219     -0.2867
    123  CB        25.4600    7.5280  -18.1300 C.3   219  TRP219      0.0550
    124  CG        24.2810    8.4500  -18.2020 C.ar  219  TRP219      0.0003
    125  CD1       23.6850    8.9880  -19.3060 C.ar  219  TRP219      0.0946
    126  CD2       23.5490    8.9410  -17.0810 C.ar  219  TRP219      0.0152
    127  NE1       22.6230    9.7920  -18.9550 N.ar  219  TRP219     -0.2442
    128  CE2       22.5180    9.7740  -17.5810 C.ar  219  TRP219      0.0810
    129  CE3       23.6830    8.7330  -15.6980 C.ar  219  TRP219      0.0012
    130  CZ2       21.6030   10.4240  -16.7580 C.ar  219  TRP219      0.0191
    131  CZ3       22.7710    9.3860  -14.9040 C.ar  219  TRP219      0.0001
    132  CH2       21.7650   10.2020  -15.4160 C.ar  219  TRP219      0.0015
    133  N         17.9110   11.4190  -19.5370 N.3   298  CYS298     -0.1221
    134  CA        17.5170   10.7820  -18.2790 C.3   298  CYS298      0.1808
    135  C         16.4850    9.6970  -18.4920 C.2   298  CYS298      0.2601
    136  O         15.2970    9.9210  -18.6070 O.2   298  CYS298     -0.2717
    137  CB        16.9240   11.8130  -17.3130 C.3   298  CYS298      0.0970
    138  SG        18.1350   12.9580  -16.6390 S.3   298  CYS298     -0.0800
    139  N         17.0330    8.4790  -18.4880 N.am  299  ALA299     -0.1965
    140  CA        16.2620    7.2270  -18.5670 C.3   299  ALA299      0.1728
    141  C         17.0950    6.1220  -17.9880 C.2   299  ALA299      0.2616
    142  O         18.0130    5.6160  -18.6760 O.2   299  ALA299     -0.2715
    143  CB        15.9250    7.0680  -20.0290 C.3   299  ALA299      0.0334
    144  N         16.9040    5.6360  -16.7670 N.am  300  LEU300     -0.1977
    145  CA        17.8880    4.6080  -16.3370 C.3   300  LEU300      0.1596
    146  C         17.4630    3.2220  -16.7490 C.2   300  LEU300      0.2287
    147  O         16.3580    2.7580  -16.4640 O.2   300  LEU300     -0.2864
    148  CB        18.0900    4.7450  -14.8330 C.3   300  LEU300      0.0297
    149  CG        19.3750    5.4570  -14.3910 C.3   300  LEU300      0.0022
    150  CD1       20.0700    6.1420  -15.5640 C.3   300  LEU300      0.0001
    151  CD2       19.0650    6.4440  -13.2760 C.3   300  LEU300      0.0001
    152  N         15.7220    0.8460  -14.2070 N.3   303  CYS303     -0.1235
    153  CA        14.3630    1.0020  -13.7260 C.3   303  CYS303      0.1677
    154  C         13.3330    0.5530  -14.7580 C.2   303  CYS303      0.2270
    155  O         12.1420    0.6780  -14.5660 O.2   303  CYS303     -0.2867
    156  CB        14.1130    2.4590  -13.3430 C.3   303  CYS303      0.0956
    157  SG        15.1380    3.0260  -11.9700 S.3   303  CYS303     -0.0801
    158  N          7.5790    2.6030  -14.4820 N.3   309  TYR309     -0.1228
    159  CA         8.5420    3.2090  -15.4020 C.3   309  TYR309      0.1721
    160  C          7.8060    4.0530  -16.4270 C.2   309  TYR309      0.2437
    161  O          6.8140    3.5970  -16.9960 O.2   309  TYR309     -0.2733
    162  CB         9.3520    2.1130  -16.1040 C.3   309  TYR309      0.0547
    163  CG        10.3850    2.6670  -17.0470 C.ar  309  TYR309     -0.0200
    164  CD1       11.5320    3.2500  -16.5280 C.ar  309  TYR309     -0.0009
    165  CD2       10.2250    2.5940  -18.4290 C.ar  309  TYR309     -0.0009
    166  CE1       12.5030    3.7690  -17.3800 C.ar  309  TYR309      0.0417
    167  CE2       11.2040    3.1130  -19.2570 C.ar  309  TYR309      0.0417
    168  CZ        12.3400    3.6890  -18.7360 C.ar  309  TYR309      0.1957
    169  OH        13.2750    4.1900  -19.6150 O.3   309  TYR309     -0.2866
    170  N          8.1770    5.3190  -16.5470 N.am  310  PRO310     -0.2718
    171  CA         7.3250    6.2090  -17.3650 C.3   310  PRO310      0.1535
    172  C          7.4680    6.1570  -18.8750 C.2   310  PRO310      0.2598
    173  O          6.5950    6.6970  -19.5520 O.2   310  PRO310     -0.2715
    174  CB         7.7070    7.6140  -16.8840 C.3   310  PRO310      0.0310
    175  CG         9.1080    7.4470  -16.3580 C.3   310  PRO310      0.0237
    176  CD         9.2600    6.0370  -15.8490 C.3   310  PRO310      0.0939
    177  N          8.5540    5.5590  -19.3800 N.am  311  PHE311     -0.1974
    178  CA         8.8630    5.8220  -20.7920 C.3   311  PHE311      0.1639
    179  C          8.6000    4.6130  -21.6740 C.2   311  PHE311      0.2290
    180  O          9.0660    4.5940  -22.8160 O.2   311  PHE311     -0.2864
    181  CB        10.3060    6.3130  -20.9370 C.3   311  PHE311      0.0560
    182  CG        10.6320    7.5170  -20.0600 C.ar  311  PHE311     -0.0200
    183  CD1        9.7390    8.5470  -19.8790 C.ar  311  PHE311     -0.0042
    184  CD2       11.8510    7.5790  -19.4040 C.ar  311  PHE311     -0.0042
    185  CE1       10.0580    9.6170  -19.0750 C.ar  311  PHE311     -0.0003
    186  CE2       12.1920    8.6510  -18.6030 C.ar  311  PHE311     -0.0003
    187  CZ        11.2870    9.6760  -18.4160 C.ar  311  PHE311     -0.0000
@<TRIPOS>BOND
     1   180   179    2
     2   179   178    1
     3   181   178    1
     4   181   182    1
     5   178   177    1
     6   122   121    2
     7   182   183   ar
     8   182   184   ar
     9   143   140    1
    10   110   109    2
    11   183   185   ar
    12   121   120    1
    13   169   168    1
    14   173   172    2
    15   133   134    1
    16   184   186   ar
    17   177   172   am
    18   125   127   ar
    19   125   124   ar
    20   167   168   ar
    21   167   165   ar
    22   185   187   ar
    23   127   128   ar
    24   109   108    1
    25   172   171    1
    26   168   166   ar
    27   142   141    2
    28   136   135    2
    29   186   187   ar
    30   140   139    1
    31   140   141    1
    32   135   139   am
    33   135   134    1
    34   165   163   ar
    35   107   108    1
    36   120   123    1
    37   120   119    1
    38   134   137    1
    39   124   123    1
    40   124   126   ar
    41   141   144   am
    42   108   111    1
    43   128   126   ar
    44   128   130   ar
    45   115   113   ar
    46   115   117   ar
    47   166   164   ar
    48   171   174    1
    49   171   170    1
    50   113   112   ar
    51   137   138    1
    52   126   129   ar
    53   163   164   ar
    54   163   162    1
    55   161   160    2
    56   174   175    1
    57   118   117    1
    58   117   116   ar
    59   144   145    1
    60   130   132   ar
    61   146   147    2
    62   146   145    1
    63   112   111    1
    64   112   114   ar
    65   170   160   am
    66   170   176    1
    67   160   159    1
    68   175   176    1
    69   145   148    1
    70   116   114   ar
    71   162   159    1
    72   129   131   ar
    73   150   149    1
    74   132   131   ar
    75   159   158    1
    76    77    76   ar
    77    77    75   ar
    78    13    14   ar
    79    13    11   ar
    80    76    74   ar
    81   148   149    1
    82    14    12   ar
    83   154   155    2
    84   154   153    1
    85   149   151    1
    86   152   153    1
    87    11     8   ar
    88    75    73   ar
    89    74    71   ar
    90   153   156    1
    91    12    10   ar
    92   156   157    1
    93    73    71   ar
    94    73    72   ar
    95     8    10   ar
    96     8     6   ar
    97    71    69   ar
    98    10     9   ar
    99     4     3    2
   100    84    82    1
   101    72    70   ar
   102     6     5    1
   103     6     7   ar
   104     5     2    1
   105    69    70   ar
   106    69    68    1
   107     9     7   ar
   108    57    56    2
   109     3     2    1
   110    68    65    1
   111    65    66    1
   112    65    64    1
   113    33    32    1
   114     2     1    1
   115    83    82    1
   116    82    79    1
   117    66    67    2
   118    78    79    1
   119    56    64   am
   120    56    55    1
   121    61    63   ar
   122    61    59   ar
   123    63    62   ar
   124   104   106   ar
   125   104   102   ar
   126    79    80    1
   127    32    30   ar
   128    32    31   ar
   129   106   105   ar
   130    30    28   ar
   131   102   101   ar
   132    31    29   ar
   133    95    93   ar
   134    95    94   ar
   135    55    58    1
   136    55    54    1
   137    93    91   ar
   138    62    60   ar
   139    59    58    1
   140    59    60   ar
   141   105   103   ar
   142    47    46   ar
   143    47    45   ar
   144    80    81    2
   145    28    27   ar
   146   101   103   ar
   147   101   100    1
   148    46    44   ar
   149    29    27   ar
   150    94    92   ar
   151    53    52    1
   152    91    90   ar
   153    27    26    1
   154   100    97    1
   155    45    43   ar
   156    20    19    1
   157    44    41   ar
   158    92    90   ar
   159    90    89    1
   160    26    23    1
   161    52    49    1
   162    97    98    1
   163    97    96    1
   164    43    41   ar
   165    43    42   ar
   166    99    98    2
   167    23    22    1
   168    23    24    1
   169    21    19    1
   170    41    39   ar
   171    19    16    1
   172    22    17   am
   173    49    48    1
   174    49    50    1
   175    18    17    2
   176    85    86    1
   177    25    24    2
   178    89    86    1
   179    17    16    1
   180    48    36   am
   181    42    40   ar
   182    86    87    1
   183    16    15    1
   184    39    40   ar
   185    39    38    1
   186    35    36    1
   187    35    38    1
   188    35    34    1
   189    36    37    2
   190    50    51    2
   191    87    88    2
