@<TRIPOS>MOLECULE
tmp/3dn6A00.pdb
 122 113 0 0 0
SMALL
GASTEIGER

@<TRIPOS>ATOM
      1  N         24.2160    7.4010   12.3280 N.3    78  ILE78      -0.1245
      2  CA        23.8460    6.7370   11.0760 C.3    78  ILE78       0.1561
      3  C         22.6460    5.8090   11.2840 C.2    78  ILE78       0.2260
      4  O         21.6770    5.8470   10.5140 O.2    78  ILE78      -0.2867
      5  CB        25.0380    5.9350   10.4790 C.3    78  ILE78       0.0252
      6  CG1       26.0970    6.8900    9.9100 C.3    78  ILE78       0.0019
      7  CG2       24.5530    4.9560    9.4010 C.3    78  ILE78       0.0019
      8  CD1       27.4610    6.2490    9.6660 C.3    78  ILE78       0.0001
      9  N         20.0510    7.3020    6.0260 N.3    84  LEU84      -0.1245
     10  CA        21.4060    6.7410    6.0440 C.3    84  LEU84       0.1561
     11  C         21.4630    5.2600    6.4210 C.2    84  LEU84       0.2260
     12  O         22.2940    4.5130    5.8950 O.2    84  LEU84      -0.2867
     13  CB        22.3010    7.5440    7.0010 C.3    84  LEU84       0.0270
     14  CG        22.5720    9.0200    6.6920 C.3    84  LEU84       0.0019
     15  CD1       23.4510    9.6430    7.7810 C.3    84  LEU84       0.0001
     16  CD2       23.2110    9.1940    5.3140 C.3    84  LEU84       0.0001
     17  N         21.2820    2.4530    3.4890 N.3    87  VAL87      -0.1231
     18  CA        22.4950    2.3570    2.6730 C.3    87  VAL87       0.1692
     19  C         23.6200    1.7090    3.4780 C.2    87  VAL87       0.2592
     20  O         24.3080    0.8090    2.9890 O.2    87  VAL87      -0.2718
     21  CB        22.9230    3.7280    2.1000 C.3    87  VAL87       0.0266
     22  CG1       24.1220    3.5810    1.1750 C.3    87  VAL87       0.0020
     23  CG2       21.7700    4.3430    1.3390 C.3    87  VAL87       0.0020
     24  N         23.7640    2.1390    4.7310 N.am   88  TYR88      -0.1976
     25  CA        24.7670    1.5730    5.6380 C.3    88  TYR88       0.1639
     26  C         24.5820    0.0590    5.8160 C.2    88  TYR88       0.2290
     27  O         25.5330   -0.7050    5.6620 O.2    88  TYR88      -0.2864
     28  CB        24.7220    2.2960    6.9860 C.3    88  TYR88       0.0560
     29  CG        25.7930    1.8540    7.9530 C.ar   88  TYR88      -0.0198
     30  CD1       27.0670    2.4290    7.9270 C.ar   88  TYR88      -0.0009
     31  CD2       25.5350    0.8610    8.8930 C.ar   88  TYR88      -0.0009
     32  CE1       28.0600    2.0190    8.8200 C.ar   88  TYR88       0.0417
     33  CE2       26.5190    0.4420    9.7840 C.ar   88  TYR88       0.0417
     34  CZ        27.7730    1.0220    9.7420 C.ar   88  TYR88       0.1957
     35  OH        28.7380    0.6120   10.6270 O.3    88  TYR88      -0.2866
     36  N         25.8190   -2.2350    2.9290 N.3    91  LEU91      -0.1245
     37  CA        27.2580   -2.2890    2.6550 C.3    91  LEU91       0.1561
     38  C         27.9990   -3.3930    3.4140 C.2    91  LEU91       0.2260
     39  O         27.5500   -3.8390    4.4760 O.2    91  LEU91      -0.2867
     40  CB        27.9120   -0.9370    2.9830 C.3    91  LEU91       0.0270
     41  CG        27.4530    0.3220    2.2420 C.3    91  LEU91       0.0019
     42  CD1       28.0180    1.5440    2.9620 C.3    91  LEU91       0.0001
     43  CD2       27.8820    0.3130    0.7780 C.3    91  LEU91       0.0001
     44  N         31.7060    5.0640    5.0570 N.3    99  ALA99      -0.1245
     45  CA        30.5070    5.7990    5.4900 C.3    99  ALA99       0.1562
     46  C         30.7060    6.5130    6.8290 C.2    99  ALA99       0.2260
     47  O         30.3550    7.6960    6.9720 O.2    99  ALA99      -0.2867
     48  CB        29.3100    4.8440    5.5800 C.3    99  ALA99       0.0290
     49  N         33.0040    9.6580    6.4900 N.3   102  MET102     -0.1230
     50  CA        32.2470   10.8150    5.9960 C.3   102  MET102      0.1702
     51  C         31.4100   11.5010    7.0750 C.2   102  MET102      0.2592
     52  O         31.4360   12.7280    7.1930 O.2   102  MET102     -0.2718
     53  CB        31.3500   10.4130    4.8190 C.3   102  MET102      0.0401
     54  CG        32.0990   10.0800    3.5340 C.3   102  MET102      0.0596
     55  SD        30.9750    9.8160    2.1390 S.3   102  MET102     -0.1393
     56  CE        30.5850   11.4960    1.6510 C.3   102  MET102      0.0692
     57  N         30.6700   10.7160    7.8580 N.am  103  VAL103     -0.1980
     58  CA        29.8390   11.2710    8.9400 C.3   103  VAL103      0.1595
     59  C         30.7010   11.9200   10.0310 C.2   103  VAL103      0.2287
     60  O         30.3580   12.9900   10.5450 O.2   103  VAL103     -0.2864
     61  CB        28.8740   10.2060    9.5380 C.3   103  VAL103      0.0276
     62  CG1       28.1700   10.7300   10.8050 C.3   103  VAL103      0.0022
     63  CG2       27.8340    9.8150    8.5090 C.3   103  VAL103      0.0022
     64  N         26.0280   15.8330    5.1520 N.3   111  VAL111     -0.1245
     65  CA        25.8390   14.7810    4.1550 C.3   111  VAL111      0.1561
     66  C         24.4150   14.7110    3.5650 C.2   111  VAL111      0.2260
     67  O         24.1350   13.8700    2.7010 O.2   111  VAL111     -0.2867
     68  CB        26.3130   13.4030    4.6900 C.3   111  VAL111      0.0252
     69  CG1       25.3790   12.8690    5.7700 C.3   111  VAL111      0.0019
     70  CG2       26.4330   12.4290    3.5580 C.3   111  VAL111      0.0019
     71  N         23.8510   14.2720   -0.2380 N.3   114  PHE114     -0.1241
     72  CA        24.4410   13.1190   -0.9250 C.3   114  PHE114      0.1605
     73  C         23.4210   12.0430   -1.3310 C.2   114  PHE114      0.2264
     74  O         23.7920   10.8950   -1.5620 O.2   114  PHE114     -0.2867
     75  CB        25.5910   12.5160   -0.0990 C.3   114  PHE114      0.0534
     76  CG        26.8760   13.3010   -0.1800 C.ar  114  PHE114     -0.0203
     77  CD1       27.0960   14.3930    0.6550 C.ar  114  PHE114     -0.0042
     78  CD2       27.8640   12.9540   -1.1010 C.ar  114  PHE114     -0.0042
     79  CE1       28.2890   15.1340    0.5760 C.ar  114  PHE114     -0.0003
     80  CE2       29.0570   13.6780   -1.1850 C.ar  114  PHE114     -0.0003
     81  CZ        29.2690   14.7750   -0.3450 C.ar  114  PHE114     -0.0000
     82  N         24.2650    9.9700   -4.5510 N.3   117  SER117     -0.1202
     83  CA        25.4190    9.1150   -4.2430 C.3   117  SER117      0.2020
     84  C         24.9770    7.9020   -3.4310 C.2   117  SER117      0.2618
     85  O         25.3720    6.7750   -3.7260 O.2   117  SER117     -0.2717
     86  CB        26.4730    9.8880   -3.4440 C.3   117  SER117      0.2103
     87  OG        27.2110   10.7780   -4.2580 O.3   117  SER117     -0.2182
     88  N         24.1430    8.1560   -2.4200 N.am  118  LEU118     -0.1979
     89  CA        23.6210    7.1180   -1.5270 C.3   118  LEU118      0.1596
     90  C         22.8460    6.0460   -2.2900 C.2   118  LEU118      0.2287
     91  O         23.0350    4.8460   -2.0550 O.2   118  LEU118     -0.2864
     92  CB        22.7410    7.7410   -0.4320 C.3   118  LEU118      0.0297
     93  CG        23.4400    8.6480    0.5890 C.3   118  LEU118      0.0022
     94  CD1       22.4310    9.3720    1.4810 C.3   118  LEU118      0.0001
     95  CD2       24.3890    7.8460    1.4300 C.3   118  LEU118      0.0001
     96  N         25.2940    3.9100   -4.3070 N.3   121  LEU121     -0.1245
     97  CA        25.9830    2.9900   -3.3920 C.3   121  LEU121      0.1561
     98  C         25.1010    1.8040   -2.9950 C.2   121  LEU121      0.2260
     99  O         25.5710    0.6630   -2.9850 O.2   121  LEU121     -0.2867
    100  CB        26.5180    3.7240   -2.1530 C.3   121  LEU121      0.0270
    101  CG        27.6940    4.6780   -2.4260 C.3   121  LEU121      0.0019
    102  CD1       27.8900    5.6360   -1.2720 C.3   121  LEU121      0.0001
    103  CD2       28.9920    3.9310   -2.7280 C.3   121  LEU121      0.0001
    104  N         30.1990   11.0910   -6.0560 N.3   133  LEU133     -0.1245
    105  CA        30.7540   11.5550   -4.7760 C.3   133  LEU133      0.1561
    106  C         31.7530   12.7070   -4.9360 C.2   133  LEU133      0.2260
    107  O         31.8060   13.6120   -4.0940 O.2   133  LEU133     -0.2867
    108  CB        31.4170   10.3870   -4.0300 C.3   133  LEU133      0.0270
    109  CG        30.4920    9.3870   -3.3170 C.3   133  LEU133      0.0019
    110  CD1       31.2200    8.0650   -3.0360 C.3   133  LEU133      0.0001
    111  CD2       29.9200    9.9690   -2.0220 C.3   133  LEU133      0.0001
    112  N         35.1480    3.2480   -1.2040 N.3   153  PHE153     -0.1241
    113  CA        33.7990    2.9520   -1.7130 C.3   153  PHE153      0.1605
    114  C         33.8160    2.2550   -3.0740 C.2   153  PHE153      0.2264
    115  O         32.9820    1.3870   -3.3410 O.2   153  PHE153     -0.2867
    116  CB        32.9560    4.2280   -1.8540 C.3   153  PHE153      0.0534
    117  CG        32.2890    4.6880   -0.5840 C.ar  153  PHE153     -0.0203
    118  CD1       31.4510    3.8420    0.1420 C.ar  153  PHE153     -0.0042
    119  CD2       32.4450    6.0040   -0.1550 C.ar  153  PHE153     -0.0042
    120  CE1       30.8130    4.2920    1.3030 C.ar  153  PHE153     -0.0003
    121  CE2       31.8180    6.4680    1.0060 C.ar  153  PHE153     -0.0003
    122  CZ        30.9950    5.6100    1.7380 C.ar  153  PHE153     -0.0000
@<TRIPOS>BOND
     1   104   105    1
     2   106   105    1
     3   106   107    2
     4   105   108    1
     5    82    83    1
     6    96    97    1
     7    87    86    1
     8    83    86    1
     9    83    84    1
    10   108   109    1
    11    85    84    2
    12    84    88   am
    13    97    98    1
    14    97   100    1
    15   115   114    2
    16   109   110    1
    17   109   111    1
    18   114   113    1
    19    98    99    2
    20   103   101    1
    21   101   100    1
    22   101   102    1
    23    88    89    1
    24    90    91    2
    25    90    89    1
    26   116   113    1
    27   116   117    1
    28   113   112    1
    29    74    73    2
    30    89    92    1
    31    73    72    1
    32    80    78   ar
    33    80    81   ar
    34    78    76   ar
    35    72    71    1
    36    72    75    1
    37   117   119   ar
    38   117   118   ar
    39    92    93    1
    40    81    79   ar
    41    76    75    1
    42    76    77   ar
    43   119   121   ar
    44   118   120   ar
    45    79    77   ar
    46    93    95    1
    47    93    94    1
    48    43    41    1
    49   121   122   ar
    50    22    21    1
    51   120   122   ar
    52    23    21    1
    53    56    55    1
    54    21    18    1
    55    55    54    1
    56    41    42    1
    57    41    40    1
    58    37    36    1
    59    37    40    1
    60    37    38    1
    61    18    19    1
    62    18    17    1
    63    67    66    2
    64    20    19    2
    65    38    39    2
    66    19    24   am
    67    54    53    1
    68    70    68    1
    69    66    65    1
    70    65    68    1
    71    65    64    1
    72    68    69    1
    73    24    25    1
    74    53    50    1
    75    44    45    1
    76    16    14    1
    77    45    48    1
    78    45    46    1
    79    25    26    1
    80    25    28    1
    81    27    26    2
    82    12    11    2
    83    50    49    1
    84    50    51    1
    85     9    10    1
    86    10    11    1
    87    10    13    1
    88    14    13    1
    89    14    15    1
    90    46    47    2
    91    28    29    1
    92    51    52    2
    93    51    57   am
    94    57    58    1
    95    30    29   ar
    96    30    32   ar
    97    29    31   ar
    98    63    61    1
    99    32    34   ar
   100    31    33   ar
   101    58    61    1
   102    58    59    1
   103     7     5    1
   104    61    62    1
   105     8     6    1
   106    34    33   ar
   107    34    35    1
   108     6     5    1
   109    59    60    2
   110     5     2    1
   111     4     3    2
   112     2     3    1
   113     2     1    1
