@<TRIPOS>MOLECULE
tmp/3dn8A03.pdb
 120 110 0 0 0
SMALL
GASTEIGER

@<TRIPOS>ATOM
      1  N         24.0070    7.1200   12.2510 N.3    76  ILE76      -0.1245
      2  CA        23.6130    6.4560   11.0100 C.3    76  ILE76       0.1561
      3  C         22.4080    5.5430   11.2440 C.2    76  ILE76       0.2260
      4  O         21.4040    5.6370   10.5320 O.2    76  ILE76      -0.2867
      5  CB        24.7810    5.6320   10.3980 C.3    76  ILE76       0.0252
      6  CG1       25.9160    6.5520    9.9390 C.3    76  ILE76       0.0019
      7  CG2       24.2930    4.7730    9.2360 C.3    76  ILE76       0.0019
      8  CD1       27.2040    5.8210    9.5720 C.3    76  ILE76       0.0001
      9  N         19.0510    6.5180    6.2650 N.3    82  LEU82      -0.1245
     10  CA        20.4790    6.2310    6.1050 C.3    82  LEU82       0.1561
     11  C         20.8140    4.7990    6.4940 C.2    82  LEU82       0.2260
     12  O         21.7280    4.1850    5.9280 O.2    82  LEU82      -0.2867
     13  CB        21.3220    7.1780    6.9640 C.3    82  LEU82       0.0270
     14  CG        21.3710    8.6750    6.6490 C.3    82  LEU82       0.0019
     15  CD1       22.2430    9.3680    7.6800 C.3    82  LEU82       0.0001
     16  CD2       21.8910    8.9300    5.2450 C.3    82  LEU82       0.0001
     17  N         20.9280    2.0880    3.6740 N.3    85  VAL85      -0.1231
     18  CA        22.1100    2.1650    2.8170 C.3    85  VAL85       0.1692
     19  C         23.2980    1.5300    3.5350 C.2    85  VAL85       0.2592
     20  O         23.9960    0.6820    2.9790 O.2    85  VAL85      -0.2718
     21  CB        22.4490    3.6120    2.3880 C.3    85  VAL85       0.0266
     22  CG1       23.5680    3.5990    1.3530 C.3    85  VAL85       0.0020
     23  CG2       21.2150    4.3160    1.8360 C.3    85  VAL85       0.0020
     24  N         23.5010    1.9360    4.7850 N.am   86  TYR86      -0.1976
     25  CA        24.5660    1.3990    5.6140 C.3    86  TYR86       0.1639
     26  C         24.4670   -0.1210    5.7440 C.2    86  TYR86       0.2290
     27  O         25.4570   -0.8320    5.5600 O.2    86  TYR86      -0.2864
     28  CB        24.5230    2.0580    6.9870 C.3    86  TYR86       0.0560
     29  CG        25.6410    1.6410    7.9020 C.ar   86  TYR86      -0.0198
     30  CD1       26.8770    2.2850    7.8650 C.ar   86  TYR86      -0.0009
     31  CD2       25.4600    0.6090    8.8150 C.ar   86  TYR86      -0.0009
     32  CE1       27.9080    1.9010    8.7130 C.ar   86  TYR86       0.0417
     33  CE2       26.4760    0.2240    9.6600 C.ar   86  TYR86       0.0417
     34  CZ        27.6990    0.8690    9.6050 C.ar   86  TYR86       0.1957
     35  OH        28.7060    0.4810   10.4530 O.3    86  TYR86      -0.2866
     36  N         25.7240   -2.3420    2.8790 N.3    89  LEU89      -0.1245
     37  CA        27.1600   -2.3560    2.6070 C.3    89  LEU89       0.1561
     38  C         27.9090   -3.4720    3.3330 C.2    89  LEU89       0.2260
     39  O         27.4670   -3.9520    4.3740 O.2    89  LEU89      -0.2867
     40  CB        27.7830   -1.0110    3.0100 C.3    89  LEU89       0.0270
     41  CG        27.3370    0.2780    2.3110 C.3    89  LEU89       0.0019
     42  CD1       27.8780    1.5010    3.0520 C.3    89  LEU89       0.0001
     43  CD2       27.7840    0.2870    0.8520 C.3    89  LEU89       0.0001
     44  N         33.9630    3.3780    5.3250 N.3    96  ALA96      -0.1231
     45  CA        33.9860    4.5820    4.4860 C.3    96  ALA96       0.1694
     46  C         32.7910    5.5020    4.7830 C.2    96  ALA96       0.2591
     47  O         32.9340    6.7300    4.8130 O.2    96  ALA96      -0.2718
     48  CB        34.0480    4.2090    3.0160 C.3    96  ALA96       0.0304
     49  N         31.6230    4.8990    5.0140 N.am   97  ALA97      -0.1980
     50  CA        30.4330    5.6430    5.4350 C.3    97  ALA97       0.1597
     51  C         30.6410    6.3670    6.7650 C.2    97  ALA97       0.2287
     52  O         30.3050    7.5520    6.8980 O.2    97  ALA97      -0.2864
     53  CB        29.2240    4.7150    5.5160 C.3    97  ALA97       0.0319
     54  N         30.5860   10.5210    7.7360 N.3   100  VAL100     -0.1245
     55  CA        29.7360   11.0140    8.8290 C.3   100  VAL100      0.1561
     56  C         30.5630   11.7420    9.8930 C.2   100  VAL100      0.2260
     57  O         30.1930   12.8360   10.3540 O.2   100  VAL100     -0.2867
     58  CB        28.9210    9.8640    9.4730 C.3   100  VAL100      0.0252
     59  CG1       28.2270   10.3360   10.7550 C.3   100  VAL100      0.0019
     60  CG2       27.8890    9.3430    8.4850 C.3   100  VAL100      0.0019
     61  N         25.9120   15.0420    5.3190 N.3   107  VAL107     -0.1245
     62  CA        25.7000   14.0250    4.2890 C.3   107  VAL107      0.1561
     63  C         24.2990   14.1280    3.6550 C.2   107  VAL107      0.2260
     64  O         23.9870   13.3880    2.7190 O.2   107  VAL107     -0.2867
     65  CB        25.9480   12.5710    4.8000 C.3   107  VAL107      0.0252
     66  CG1       26.3160   11.6620    3.6330 C.3   107  VAL107      0.0019
     67  CG2       27.0490   12.5180    5.8530 C.3   107  VAL107      0.0019
     68  N         24.2300   14.2340   -0.0010 N.3   110  PHE110     -0.1241
     69  CA        24.7410   13.0670   -0.7330 C.3   110  PHE110      0.1605
     70  C         23.6870   12.0240   -1.1160 C.2   110  PHE110      0.2264
     71  O         24.0290   10.8980   -1.4870 O.2   110  PHE110     -0.2867
     72  CB        25.9120   12.4280    0.0210 C.3   110  PHE110      0.0534
     73  CG        27.1810   13.2190   -0.0720 C.ar  110  PHE110     -0.0203
     74  CD1       27.5290   14.1230    0.9260 C.ar  110  PHE110     -0.0042
     75  CD2       28.0240   13.0770   -1.1740 C.ar  110  PHE110     -0.0042
     76  CE1       28.7020   14.8680    0.8300 C.ar  110  PHE110     -0.0003
     77  CE2       29.1980   13.8170   -1.2750 C.ar  110  PHE110     -0.0003
     78  CZ        29.5350   14.7150   -0.2700 C.ar  110  PHE110     -0.0000
     79  N         24.3250    8.0920   -2.2420 N.3   114  LEU114     -0.1245
     80  CA        23.8220    7.0170   -1.3840 C.3   114  LEU114      0.1561
     81  C         22.9820    6.0110   -2.1570 C.2   114  LEU114      0.2260
     82  O         23.1160    4.7990   -1.9690 O.2   114  LEU114     -0.2867
     83  CB        22.9960    7.5940   -0.2340 C.3   114  LEU114      0.0270
     84  CG        23.7460    8.5040    0.7290 C.3   114  LEU114      0.0019
     85  CD1       22.7900    9.0800    1.7620 C.3   114  LEU114      0.0001
     86  CD2       24.8710    7.7420    1.3830 C.3   114  LEU114      0.0001
     87  N         25.2550    3.8690   -4.1610 N.3   116  LEU116     -0.1245
     88  CA        25.9390    2.9430   -3.2560 C.3   116  LEU116      0.1561
     89  C         25.0460    1.7620   -2.8770 C.2   116  LEU116      0.2260
     90  O         25.5150    0.6260   -2.8330 O.2   116  LEU116     -0.2867
     91  CB        26.4540    3.6590   -2.0010 C.3   116  LEU116      0.0270
     92  CG        27.6310    4.6240   -2.1840 C.3   116  LEU116      0.0019
     93  CD1       27.8880    5.3840   -0.8860 C.3   116  LEU116      0.0001
     94  CD2       28.8880    3.8970   -2.6370 C.3   116  LEU116      0.0001
     95  N         30.2130   10.9460   -6.0030 N.3   128  LEU128     -0.1245
     96  CA        30.7420   11.4210   -4.7200 C.3   128  LEU128      0.1561
     97  C         31.7330   12.5710   -4.9000 C.2   128  LEU128      0.2260
     98  O         31.8050   13.4750   -4.0610 O.2   128  LEU128     -0.2867
     99  CB        31.4180   10.2740   -3.9620 C.3   128  LEU128      0.0270
    100  CG        30.5130    9.2670   -3.2450 C.3   128  LEU128      0.0019
    101  CD1       31.2810    7.9700   -2.9820 C.3   128  LEU128      0.0001
    102  CD2       29.9440    9.8510   -1.9530 C.3   128  LEU128      0.0001
    103  N         38.6640    7.9550    0.6140 N.3   144  VAL144     -0.1245
    104  CA        37.3470    7.4630    1.0030 C.3   144  VAL144      0.1561
    105  C         36.5940    6.9260   -0.2190 C.2   144  VAL144      0.2260
    106  O         35.9920    5.8520   -0.1580 O.2   144  VAL144     -0.2867
    107  CB        36.5450    8.5560    1.7410 C.3   144  VAL144      0.0252
    108  CG1       35.1170    8.1090    2.0040 C.3   144  VAL144      0.0019
    109  CG2       37.2450    8.9160    3.0580 C.3   144  VAL144      0.0019
    110  N         35.0970    3.1800   -1.2240 N.3   148  PHE148     -0.1241
    111  CA        33.7560    2.8730   -1.7450 C.3   148  PHE148      0.1605
    112  C         33.7810    2.1860   -3.1070 C.2   148  PHE148      0.2264
    113  O         32.9290    1.3400   -3.3940 O.2   148  PHE148     -0.2867
    114  CB        32.8970    4.1330   -1.8620 C.3   148  PHE148      0.0534
    115  CG        32.2160    4.5390   -0.5880 C.ar  148  PHE148     -0.0203
    116  CD1       31.3460    3.6690    0.0740 C.ar  148  PHE148     -0.0042
    117  CD2       32.4140    5.8130   -0.0670 C.ar  148  PHE148     -0.0042
    118  CE1       30.7050    4.0570    1.2440 C.ar  148  PHE148     -0.0003
    119  CE2       31.7750    6.2120    1.1030 C.ar  148  PHE148     -0.0003
    120  CZ        30.9170    5.3290    1.7620 C.ar  148  PHE148     -0.0000
@<TRIPOS>BOND
     1    95    96    1
     2    97    96    1
     3    97    98    2
     4    96    99    1
     5    87    88    1
     6    99   100    1
     7   113   112    2
     8    88    89    1
     9    88    91    1
    10   100   101    1
    11   100   102    1
    12   112   111    1
    13    89    90    2
    14    94    92    1
    15    79    80    1
    16    92    91    1
    17    92    93    1
    18    81    82    2
    19    81    80    1
    20   114   111    1
    21   114   115    1
    22   111   110    1
    23    71    70    2
    24    80    83    1
    25    77    75   ar
    26    77    78   ar
    27    75    73   ar
    28    70    69    1
    29    69    68    1
    30    69    72    1
    31   115   117   ar
    32   115   116   ar
    33    78    76   ar
    34    83    84    1
    35   105   106    2
    36   105   104    1
    37    73    72    1
    38    73    74   ar
    39   117   119   ar
    40   116   118   ar
    41   103   104    1
    42    84    86    1
    43    84    85    1
    44    76    74   ar
    45    43    41    1
    46   104   107    1
    47   119   120   ar
    48   118   120   ar
    49    22    21    1
    50   107   108    1
    51   107   109    1
    52    23    21    1
    53    41    40    1
    54    41    42    1
    55    21    18    1
    56    37    36    1
    57    37    40    1
    58    37    38    1
    59    64    63    2
    60    18    19    1
    61    18    17    1
    62    20    19    2
    63    48    45    1
    64    38    39    2
    65    19    24   am
    66    66    65    1
    67    63    62    1
    68    62    65    1
    69    62    61    1
    70    45    46    1
    71    45    44    1
    72    46    47    2
    73    46    49   am
    74    24    25    1
    75    65    67    1
    76    49    50    1
    77    16    14    1
    78    50    53    1
    79    50    51    1
    80    27    26    2
    81    25    26    1
    82    25    28    1
    83    12    11    2
    84    10     9    1
    85    10    11    1
    86    10    13    1
    87    14    13    1
    88    14    15    1
    89    51    52    2
    90    28    29    1
    91    54    55    1
    92    30    29   ar
    93    30    32   ar
    94    29    31   ar
    95    60    58    1
    96    32    34   ar
    97    31    33   ar
    98    55    58    1
    99    55    56    1
   100     7     5    1
   101    58    59    1
   102     8     6    1
   103    34    33   ar
   104    34    35    1
   105    56    57    2
   106     6     5    1
   107     5     2    1
   108     4     3    2
   109     2     3    1
   110     2     1    1
