@<TRIPOS>MOLECULE
tmp/3dnaA03.pdb
 113 104 0 0 0
SMALL
GASTEIGER

@<TRIPOS>ATOM
      1  N         23.8270    6.9710   12.1410 N.3    76  ILE76      -0.1245
      2  CA        23.4650    6.3330   10.8760 C.3    76  ILE76       0.1561
      3  C         22.2730    5.3910   11.0600 C.2    76  ILE76       0.2260
      4  O         21.2990    5.4550   10.3030 O.2    76  ILE76      -0.2867
      5  CB        24.6580    5.5580   10.2520 C.3    76  ILE76       0.0252
      6  CG1       25.7560    6.5260    9.8020 C.3    76  ILE76       0.0019
      7  CG2       24.1920    4.7280    9.0680 C.3    76  ILE76       0.0019
      8  CD1       27.0940    5.8540    9.4770 C.3    76  ILE76       0.0001
      9  N         19.4580    6.7350    5.9660 N.3    82  LEU82      -0.1245
     10  CA        20.8340    6.2350    5.9500 C.3    82  LEU82       0.1561
     11  C         20.9510    4.7600    6.3310 C.2    82  LEU82       0.2260
     12  O         21.7870    4.0420    5.7780 O.2    82  LEU82      -0.2867
     13  CB        21.7360    7.0800    6.8610 C.3    82  LEU82       0.0270
     14  CG        21.8850    8.5770    6.5620 C.3    82  LEU82       0.0019
     15  CD1       22.9330    9.1920    7.4800 C.3    82  LEU82       0.0001
     16  CD2       22.2310    8.8250    5.0940 C.3    82  LEU82       0.0001
     17  N         20.8560    1.9970    3.5430 N.3    85  VAL85      -0.1231
     18  CA        22.0590    2.0400    2.7180 C.3    85  VAL85       0.1692
     19  C         23.2280    1.4100    3.4750 C.2    85  VAL85       0.2592
     20  O         23.9540    0.5780    2.9380 O.2    85  VAL85      -0.2718
     21  CB        22.4070    3.4730    2.2590 C.3    85  VAL85       0.0266
     22  CG1       23.6010    3.4460    1.3090 C.3    85  VAL85       0.0020
     23  CG2       21.2110    4.1170    1.5830 C.3    85  VAL85       0.0020
     24  N         23.3910    1.8080    4.7330 N.am   86  TYR86      -0.1976
     25  CA        24.4350    1.2590    5.5850 C.3    86  TYR86       0.1639
     26  C         24.3300   -0.2630    5.6860 C.2    86  TYR86       0.2290
     27  O         25.3110   -0.9750    5.4710 O.2    86  TYR86      -0.2864
     28  CB        24.3550    1.8900    6.9700 C.3    86  TYR86       0.0560
     29  CG        25.4760    1.4800    7.8860 C.ar   86  TYR86      -0.0198
     30  CD1       26.7100    2.1320    7.8450 C.ar   86  TYR86      -0.0009
     31  CD2       25.3060    0.4380    8.7950 C.ar   86  TYR86      -0.0009
     32  CE1       27.7440    1.7590    8.6890 C.ar   86  TYR86       0.0417
     33  CE2       26.3320    0.0550    9.6400 C.ar   86  TYR86       0.0417
     34  CZ        27.5500    0.7170    9.5810 C.ar   86  TYR86       0.1957
     35  OH        28.5670    0.3410   10.4200 O.3    86  TYR86      -0.2866
     36  N         25.5550   -2.4340    2.8520 N.3    89  LEU89      -0.1245
     37  CA        26.9930   -2.4480    2.5960 C.3    89  LEU89       0.1561
     38  C         27.7240   -3.5540    3.3380 C.2    89  LEU89       0.2260
     39  O         27.2730   -4.0200    4.3820 O.2    89  LEU89      -0.2867
     40  CB        27.6220   -1.1060    2.9850 C.3    89  LEU89       0.0270
     41  CG        27.1560    0.1500    2.2460 C.3    89  LEU89       0.0019
     42  CD1       27.6810    1.3950    2.9400 C.3    89  LEU89       0.0001
     43  CD2       27.5960    0.1180    0.7930 C.3    89  LEU89       0.0001
     44  N         33.8360    3.2820    5.2900 N.3    96  ALA96      -0.1231
     45  CA        33.8580    4.4870    4.4510 C.3    96  ALA96       0.1694
     46  C         32.6550    5.3950    4.7470 C.2    96  ALA96       0.2591
     47  O         32.7950    6.6230    4.7960 O.2    96  ALA96      -0.2718
     48  CB        33.9270    4.1190    2.9760 C.3    96  ALA96       0.0304
     49  N         31.4880    4.7830    4.9570 N.am   97  ALA97      -0.1980
     50  CA        30.2760    5.5050    5.3470 C.3    97  ALA97       0.1597
     51  C         30.4620    6.2520    6.6710 C.2    97  ALA97       0.2287
     52  O         30.1000    7.4260    6.7950 O.2    97  ALA97      -0.2864
     53  CB        29.0970    4.5420    5.4350 C.3    97  ALA97       0.0319
     54  N         30.4030   10.4270    7.5570 N.3   100  VAL100     -0.1245
     55  CA        29.5200   10.9450    8.6060 C.3   100  VAL100      0.1561
     56  C         30.3320   11.6530    9.6920 C.2   100  VAL100      0.2260
     57  O         29.9440   12.7290   10.1600 O.2   100  VAL100     -0.2867
     58  CB        28.6410    9.8270    9.2130 C.3   100  VAL100      0.0252
     59  CG1       27.9140   10.3250   10.4690 C.3   100  VAL100      0.0019
     60  CG2       27.6360    9.3330    8.1790 C.3   100  VAL100      0.0019
     61  N         25.8740   14.8140    4.9620 N.3   107  VAL107     -0.1245
     62  CA        25.5410   13.6250    4.1710 C.3   107  VAL107      0.1561
     63  C         24.2150   13.7810    3.4060 C.2   107  VAL107      0.2260
     64  O         24.0130   13.1340    2.3770 O.2   107  VAL107     -0.2867
     65  CB        25.5270   12.3420    5.0560 C.3   107  VAL107      0.0252
     66  CG1       25.0240   11.1330    4.2840 C.3   107  VAL107      0.0019
     67  CG2       26.9110   12.0670    5.6100 C.3   107  VAL107      0.0019
     68  N         24.2070   14.0140   -0.3060 N.3   110  PHE110     -0.1241
     69  CA        24.7400   12.8740   -1.0500 C.3   110  PHE110      0.1605
     70  C         23.6910   11.8330   -1.4380 C.2   110  PHE110      0.2264
     71  O         24.0330   10.7100   -1.8200 O.2   110  PHE110     -0.2867
     72  CB        25.9030   12.2350   -0.2880 C.3   110  PHE110      0.0534
     73  CG        27.1580   13.0480   -0.3380 C.ar  110  PHE110     -0.0203
     74  CD1       27.4090   14.0270    0.6190 C.ar  110  PHE110     -0.0042
     75  CD2       28.0840   12.8510   -1.3570 C.ar  110  PHE110     -0.0042
     76  CE1       28.5670   14.7910    0.5560 C.ar  110  PHE110     -0.0003
     77  CE2       29.2420   13.6130   -1.4240 C.ar  110  PHE110     -0.0003
     78  CZ        29.4840   14.5810   -0.4630 C.ar  110  PHE110     -0.0000
     79  N         24.2690    7.9140   -2.4510 N.3   114  LEU114     -0.1245
     80  CA        23.7520    6.8720   -1.5620 C.3   114  LEU114      0.1561
     81  C         22.9280    5.8370   -2.3120 C.2   114  LEU114      0.2260
     82  O         23.0270    4.6390   -2.0400 O.2   114  LEU114     -0.2867
     83  CB        22.8860    7.4890   -0.4620 C.3   114  LEU114      0.0270
     84  CG        23.5690    8.4540    0.5000 C.3   114  LEU114      0.0019
     85  CD1       22.5290    9.2260    1.2970 C.3   114  LEU114      0.0001
     86  CD2       24.4830    7.6940    1.4090 C.3   114  LEU114      0.0001
     87  N         25.2200    3.6780   -4.2060 N.3   116  LEU116     -0.1245
     88  CA        25.8630    2.7790   -3.2510 C.3   116  LEU116      0.1561
     89  C         24.9510    1.6050   -2.8900 C.2   116  LEU116      0.2260
     90  O         25.4020    0.4620   -2.8930 O.2   116  LEU116     -0.2867
     91  CB        26.3300    3.5270   -1.9940 C.3   116  LEU116      0.0270
     92  CG        27.5230    4.4810   -2.1540 C.3   116  LEU116      0.0019
     93  CD1       27.7560    5.2340   -0.8500 C.3   116  LEU116      0.0001
     94  CD2       28.7970    3.7490   -2.5700 C.3   116  LEU116      0.0001
     95  N         30.2320   10.6860   -6.1150 N.3   128  LEU128     -0.1245
     96  CA        30.7690   11.1730   -4.8400 C.3   128  LEU128      0.1561
     97  C         31.7440   12.3340   -5.0320 C.2   128  LEU128      0.2260
     98  O         31.7810   13.2550   -4.2150 O.2   128  LEU128     -0.2867
     99  CB        31.4520   10.0390   -4.0620 C.3   128  LEU128      0.0270
    100  CG        30.5200    9.0650   -3.3280 C.3   128  LEU128      0.0019
    101  CD1       31.2610    7.7840   -2.9700 C.3   128  LEU128      0.0001
    102  CD2       29.8950    9.7040   -2.0860 C.3   128  LEU128      0.0001
    103  N         34.9660    3.0160   -1.1420 N.3   148  PHE148     -0.1241
    104  CA        33.6250    2.7320   -1.6740 C.3   148  PHE148      0.1605
    105  C         33.6470    2.0390   -3.0320 C.2   148  PHE148      0.2264
    106  O         32.7910    1.1990   -3.3240 O.2   148  PHE148     -0.2867
    107  CB        32.7990    4.0080   -1.8040 C.3   148  PHE148      0.0534
    108  CG        32.0830    4.4080   -0.5490 C.ar  148  PHE148     -0.0203
    109  CD1       31.2240    3.5210    0.1040 C.ar  148  PHE148     -0.0042
    110  CD2       32.2350    5.6930   -0.0380 C.ar  148  PHE148     -0.0042
    111  CE1       30.5450    3.9040    1.2580 C.ar  148  PHE148     -0.0003
    112  CE2       31.5540    6.0890    1.1120 C.ar  148  PHE148     -0.0003
    113  CZ        30.7090    5.1890    1.7630 C.ar  148  PHE148     -0.0000
@<TRIPOS>BOND
     1    95    96    1
     2    97    96    1
     3    97    98    2
     4    96    99    1
     5    87    88    1
     6    99   100    1
     7   100   101    1
     8   100   102    1
     9   106   105    2
    10    88    89    1
    11    88    91    1
    12   105   104    1
    13    90    89    2
    14    94    92    1
    15    79    80    1
    16    81    82    2
    17    81    80    1
    18    92    91    1
    19    92    93    1
    20    71    70    2
    21   107   104    1
    22   107   108    1
    23   104   103    1
    24    80    83    1
    25    70    69    1
    26    77    75   ar
    27    77    78   ar
    28    75    73   ar
    29    69    68    1
    30    69    72    1
    31   108   110   ar
    32   108   109   ar
    33    78    76   ar
    34    83    84    1
    35    73    72    1
    36    73    74   ar
    37   110   112   ar
    38   109   111   ar
    39    84    85    1
    40    84    86    1
    41    76    74   ar
    42    43    41    1
    43   112   113   ar
    44   111   113   ar
    45    22    21    1
    46    23    21    1
    47    41    42    1
    48    41    40    1
    49    21    18    1
    50    64    63    2
    51    37    36    1
    52    37    40    1
    53    37    38    1
    54    18    19    1
    55    18    17    1
    56    20    19    2
    57    48    45    1
    58    38    39    2
    59    63    62    1
    60    19    24   am
    61    62    61    1
    62    62    65    1
    63    66    65    1
    64    45    46    1
    65    45    44    1
    66    24    25    1
    67    46    47    2
    68    46    49   am
    69    49    50    1
    70    65    67    1
    71    16    14    1
    72    50    53    1
    73    50    51    1
    74    27    26    2
    75    25    26    1
    76    25    28    1
    77    12    11    2
    78    10     9    1
    79    10    11    1
    80    10    13    1
    81    14    13    1
    82    14    15    1
    83    51    52    2
    84    28    29    1
    85    54    55    1
    86    30    29   ar
    87    30    32   ar
    88    29    31   ar
    89    60    58    1
    90    55    58    1
    91    55    56    1
    92    32    34   ar
    93    31    33   ar
    94     7     5    1
    95    58    59    1
    96     8     6    1
    97    34    33   ar
    98    34    35    1
    99    56    57    2
   100     6     5    1
   101     5     2    1
   102     4     3    2
   103     2     3    1
   104     2     1    1
