@<TRIPOS>MOLECULE
tmp/3dnaA00.pdb
 111 105 0 0 0
SMALL
GASTEIGER

@<TRIPOS>ATOM
      1  N         40.4570   23.0300   12.2540 N.3    18  ASP18      -0.1225
      2  CA        40.3400   21.9900   11.2370 C.3    18  ASP18       0.1805
      3  C         40.4290   22.5900    9.8310 C.2    18  ASP18       0.2598
      4  O         40.7180   23.7800    9.6760 O.2    18  ASP18      -0.2718
      5  CB        39.0620   21.1570   11.4360 C.3    18  ASP18       0.1424
      6  CG        37.7810   21.9350   11.1570 C.2    18  ASP18       0.3668
      7  OD1       37.8300   23.0640   10.6200 O.co2  18  ASP18      -0.2456
      8  OD2       36.6980   21.3920   11.4690 O.co2  18  ASP18      -0.2456
      9  N         40.1670   21.7700    8.8150 N.am   19  THR19      -0.1939
     10  CA        40.2890   22.2110    7.4230 C.3    19  THR19       0.2028
     11  C         39.3370   23.3640    7.0920 C.2    19  THR19       0.2642
     12  O         39.5870   24.1360    6.1620 O.2    19  THR19      -0.2714
     13  CB        40.0330   21.0490    6.4380 C.3    19  THR19       0.1808
     14  OG1       38.6730   20.6260    6.5440 O.3    19  THR19      -0.2208
     15  CG2       40.9510   19.8680    6.7320 C.3    19  THR19       0.0379
     16  N         38.2480   23.4680    7.8540 N.am   20  GLU20      -0.1976
     17  CA        37.2400   24.5140    7.6550 C.3    20  GLU20       0.1602
     18  C         37.4710   25.7520    8.5240 C.2    20  GLU20       0.2287
     19  O         36.7150   26.7250    8.4470 O.2    20  GLU20      -0.2864
     20  CB        35.8330   23.9550    7.8920 C.3    20  GLU20       0.0415
     21  CG        35.3840   22.9210    6.8620 C.3    20  GLU20       0.1163
     22  CD        35.2550   23.4800    5.4530 C.2    20  GLU20       0.3649
     23  OE1       35.0340   24.6980    5.2960 O.co2  20  GLU20      -0.2457
     24  OE2       35.3610   22.6860    4.4930 O.co2  20  GLU20      -0.2457
     25  N         37.6750   25.5730   11.9470 N.3    22  TYR22      -0.1241
     26  CA        36.9400   25.3970   13.1940 C.3    22  TYR22       0.1605
     27  C         37.7660   24.7380   14.2810 C.2    22  TYR22       0.2264
     28  O         38.4790   23.7630   14.0290 O.2    22  TYR22      -0.2867
     29  CB        35.6800   24.5650   12.9610 C.3    22  TYR22       0.0534
     30  CG        34.6630   25.2040   12.0510 C.ar   22  TYR22      -0.0201
     31  CD1       34.3410   26.5560   12.1720 C.ar   22  TYR22      -0.0009
     32  CD2       34.0070   24.4500   11.0780 C.ar   22  TYR22      -0.0009
     33  CE1       33.3970   27.1470   11.3410 C.ar   22  TYR22       0.0417
     34  CE2       33.0620   25.0310   10.2390 C.ar   22  TYR22       0.0417
     35  CZ        32.7660   26.3780   10.3780 C.ar   22  TYR22       0.1957
     36  OH        31.8300   26.9610    9.5570 O.3    22  TYR22      -0.2866
     37  N         35.6020   17.9550   16.6150 N.3    30  LEU30      -0.1245
     38  CA        35.1640   19.3320   16.4540 C.3    30  LEU30       0.1561
     39  C         34.6320   19.8540   17.7830 C.2    30  LEU30       0.2260
     40  O         33.7900   19.2120   18.4210 O.2    30  LEU30      -0.2867
     41  CB        34.0790   19.4180   15.3750 C.3    30  LEU30       0.0270
     42  CG        33.3570   20.7510   15.1730 C.3    30  LEU30       0.0019
     43  CD1       34.3180   21.7870   14.6240 C.3    30  LEU30       0.0001
     44  CD2       32.1570   20.5810   14.2380 C.3    30  LEU30       0.0001
     45  N         31.8650   25.6650   16.0790 N.3    33  LYS33      -0.1245
     46  CA        32.0520   26.4570   14.8740 C.3    33  LYS33       0.1561
     47  C         32.2610   27.9320   15.2200 C.2    33  LYS33       0.2260
     48  O         32.5390   28.7510   14.3420 O.2    33  LYS33      -0.2867
     49  CB        30.8960   26.2400   13.8900 C.3    33  LYS33       0.0271
     50  CG        30.8790   24.8260   13.3250 C.3    33  LYS33       0.0035
     51  CD        29.8330   24.6330   12.2440 C.3    33  LYS33       0.0206
     52  CE        29.8370   23.1840   11.7740 C.3    33  LYS33       0.1093
     53  NZ        28.8590   22.9350   10.6810 N.3    33  LYS33      -0.1314
     54  N         33.2130   13.1280    9.2740 N.3   102  GLN102     -0.1245
     55  CA        33.7560   14.3770    8.7430 C.3   102  GLN102      0.1566
     56  C         32.7270   15.4970    8.5620 C.2   102  GLN102      0.2260
     57  O         33.0230   16.6630    8.8370 O.2   102  GLN102     -0.2867
     58  CB        34.4820   14.1320    7.4190 C.3   102  GLN102      0.0367
     59  CG        35.1920   15.3780    6.8840 C.3   102  GLN102      0.0905
     60  CD        35.9050   15.1410    5.5740 C.2   102  GLN102      0.2608
     61  OE1       35.8730   14.0440    5.0270 O.2   102  GLN102     -0.2717
     62  NE2       36.5580   16.1810    5.0610 N.am  102  GLN102     -0.0878
     63  N         29.0120   15.1390    9.2900 N.3   103  GLY103     -0.1225
     64  CA        27.7570   15.0150   10.0320 C.3   103  GLY103      0.1811
     65  C         26.6840   14.4940    9.0900 C.2   103  GLY103      0.2280
     66  O         26.8620   14.5000    7.8690 O.2   103  GLY103     -0.2866
     67  N         25.6940   17.0830    6.5040 N.3   106  GLY106     -0.1225
     68  CA        26.6030   17.0900    5.3620 C.3   106  GLY106      0.1811
     69  C         26.2990   15.9500    4.4070 C.2   106  GLY106      0.2280
     70  O         26.4410   16.0950    3.1910 O.2   106  GLY106     -0.2866
     71  N         31.4010   19.5250   -3.0110 N.3   132  ARG132     -0.1231
     72  CA        32.2760   20.4370   -2.2850 C.3   132  ARG132      0.1694
     73  C         33.2930   19.6330   -1.4730 C.2   132  ARG132      0.2592
     74  O         34.4810   19.9650   -1.4400 O.2   132  ARG132     -0.2718
     75  CB        31.4660   21.3530   -1.3690 C.3   132  ARG132      0.0321
     76  CG        32.3530   22.2340   -0.5130 C.3   132  ARG132      0.0489
     77  CD        31.5790   23.2160    0.3290 C.3   132  ARG132      0.2205
     78  NE        32.4950   24.1650    0.9530 N.pl3 132  ARG132     -0.0865
     79  CZ        33.2260   23.9090    2.0360 C.cat 132  ARG132      0.5346
     80  NH1       33.1570   22.7270    2.6390 N.pl3 132  ARG132      0.1354
     81  NH2       34.0340   24.8430    2.5170 N.pl3 132  ARG132      0.1354
     82  N         32.8160   18.5670   -0.8310 N.am  133  TRP133     -0.1976
     83  CA        33.6620   17.6800   -0.0320 C.3   133  TRP133      0.1640
     84  C         34.9370   17.2850   -0.7710 C.2   133  TRP133      0.2290
     85  O         36.0490   17.4820   -0.2720 O.2   133  TRP133     -0.2864
     86  CB        32.8650   16.4300    0.3290 C.3   133  TRP133      0.0576
     87  CG        33.6600   15.3080    0.9290 C.ar  133  TRP133      0.0006
     88  CD1       34.4190   15.3520    2.0620 C.ar  133  TRP133      0.0946
     89  CD2       33.7330   13.9590    0.4460 C.ar  133  TRP133      0.0152
     90  NE1       34.9740   14.1180    2.3110 N.ar  133  TRP133     -0.2442
     91  CE2       34.5670   13.2440    1.3340 C.ar  133  TRP133      0.0810
     92  CE3       33.1810   13.2890   -0.6590 C.ar  133  TRP133      0.0012
     93  CZ2       34.8590   11.8880    1.1590 C.ar  133  TRP133      0.0191
     94  CZ3       33.4750   11.9400   -0.8370 C.ar  133  TRP133      0.0001
     95  CH2       34.3050   11.2520    0.0720 C.ar  133  TRP133      0.0015
     96  N         37.2560   20.3370   -1.5700 N.3   136  GLN136     -0.1231
     97  CA        37.9150   20.9420   -0.4110 C.3   136  GLN136      0.1698
     98  C         38.9350   20.0130    0.2460 C.2   136  GLN136      0.2592
     99  O         39.9860   20.4670    0.7000 O.2   136  GLN136     -0.2718
    100  CB        36.8880   21.4370    0.6130 C.3   136  GLN136      0.0381
    101  CG        35.8910   22.4770    0.0610 C.3   136  GLN136      0.0905
    102  CD        36.5500   23.7160   -0.5400 C.2   136  GLN136      0.2608
    103  OE1       36.2190   24.1260   -1.6550 O.2   136  GLN136     -0.2717
    104  NE2       37.4770   24.3220    0.1990 N.am  136  GLN136     -0.0878
    105  N         38.6280   18.7180    0.2930 N.am  137  THR137     -0.1953
    106  CA        39.5610   17.7310    0.8380 C.3   137  THR137      0.1897
    107  C         39.7660   16.5760   -0.1420 C.2   137  THR137      0.2313
    108  O         39.3680   15.4430    0.1480 O.2   137  THR137     -0.2863
    109  CB        39.1000   17.1800    2.2180 C.3   137  THR137      0.1794
    110  OG1       37.7370   16.7390    2.1380 O.3   137  THR137     -0.2208
    111  CG2       39.2290   18.2420    3.3010 C.3   137  THR137      0.0378
@<TRIPOS>BOND
     1    71    72    1
     2    72    73    1
     3    72    75    1
     4   103   102    2
     5    96    97    1
     6    73    74    2
     7    73    82   am
     8    75    76    1
     9    94    92   ar
    10    94    95   ar
    11    82    83    1
    12    84    85    2
    13    84    83    1
    14    92    89   ar
    15   102   101    1
    16   102   104   am
    17    76    77    1
    18    97    98    1
    19    97   100    1
    20   107   108    2
    21   107   106    1
    22    83    86    1
    23   101   100    1
    24    95    93   ar
    25    98   105   am
    26    98    99    2
    27   105   106    1
    28    86    87    1
    29    77    78    1
    30    89    87   ar
    31    89    91   ar
    32   106   109    1
    33    87    88   ar
    34    78    79    2
    35    93    91   ar
    36    91    90   ar
    37    79    81    1
    38    79    80    1
    39    88    90   ar
    40   110   109    1
    41   109   111    1
    42    70    69    2
    43    69    68    1
    44    24    22   ar
    45    61    60    2
    46    62    60   am
    47    23    22   ar
    48    68    67    1
    49    22    21    1
    50    60    59    1
    51    12    11    2
    52    13    14    1
    53    13    15    1
    54    13    10    1
    55    21    20    1
    56    59    58    1
    57    11    10    1
    58    11    16   am
    59    58    55    1
    60    10     9    1
    61    17    16    1
    62    17    20    1
    63    17    18    1
    64    66    65    2
    65    19    18    2
    66    56    55    1
    67    56    57    2
    68    55    54    1
    69     9     3   am
    70    65    64    1
    71    63    64    1
    72    36    35    1
    73     4     3    2
    74     3     2    1
    75    34    35   ar
    76    34    32   ar
    77    35    33   ar
    78     7     6   ar
    79    53    52    1
    80    32    30   ar
    81     6     5    1
    82     6     8   ar
    83     2     5    1
    84     2     1    1
    85    33    31   ar
    86    52    51    1
    87    25    26    1
    88    30    31   ar
    89    30    29    1
    90    51    50    1
    91    29    26    1
    92    26    27    1
    93    50    49    1
    94    49    46    1
    95    28    27    2
    96    44    42    1
    97    48    47    2
    98    43    42    1
    99    46    47    1
   100    46    45    1
   101    42    41    1
   102    41    38    1
   103    38    37    1
   104    38    39    1
   105    39    40    2
