@<TRIPOS>MOLECULE
tmp/3dndA00.pdb
 127 119 0 0 0
SMALL
GASTEIGER

@<TRIPOS>ATOM
      1  N          8.7750   15.6260    8.1120 N.3    35  LEU35      -0.1231
      2  CA         8.5770   14.2100    8.3740 C.3    35  LEU35       0.1693
      3  C          9.7560   13.3720    7.8500 C.2    35  LEU35       0.2592
      4  O          9.8140   12.1540    8.0370 O.2    35  LEU35      -0.2718
      5  CB         7.2690   13.7290    7.7300 C.3    35  LEU35       0.0284
      6  CG         6.0050   14.5630    7.9170 C.3    35  LEU35       0.0019
      7  CD1        4.9480   14.0430    6.9670 C.3    35  LEU35       0.0001
      8  CD2        5.5440   14.4800    9.3410 C.3    35  LEU35       0.0001
      9  N         10.6900   14.0270    7.1830 N.am   36  GLY36      -0.1957
     10  CA        11.7690   13.2990    6.5230 C.3    36  GLY36       0.1869
     11  C         12.6340   14.2680    5.7740 C.2    36  GLY36       0.2309
     12  O         12.1700   15.3510    5.3930 O.2    36  GLY36      -0.2863
     13  N         10.5120   16.2720    3.1560 N.3    43  VAL43      -0.1245
     14  CA         9.0740   16.0840    3.0890 C.3    43  VAL43       0.1561
     15  C          8.4860   16.7980    4.3180 C.2    43  VAL43       0.2260
     16  O          8.9360   16.5470    5.4400 O.2    43  VAL43      -0.2867
     17  CB         8.6930   14.5920    3.0680 C.3    43  VAL43       0.0252
     18  CG1        7.1630   14.3920    3.0950 C.3    43  VAL43       0.0019
     19  CG2        9.2960   13.9190    1.8530 C.3    43  VAL43       0.0019
     20  N          1.4560   15.2850    2.7430 N.3    56  ALA56      -0.1245
     21  CA         2.9450   15.3280    2.8250 C.3    56  ALA56       0.1562
     22  C          3.4930   15.9450    1.5500 C.2    56  ALA56       0.2260
     23  O          3.3530   15.3580    0.4590 O.2    56  ALA56      -0.2867
     24  CB         3.5340   13.9500    3.0180 C.3    56  ALA56       0.0290
     25  N          1.5420    5.3970   -2.4750 N.3    90  VAL90      -0.1245
     26  CA         1.0590    6.6970   -1.9550 C.3    90  VAL90       0.1561
     27  C          0.6570    7.5130   -3.1700 C.2    90  VAL90       0.2260
     28  O          1.4110    7.6210   -4.1330 O.2    90  VAL90      -0.2867
     29  CB         2.1240    7.5140   -1.1730 C.3    90  VAL90       0.0252
     30  CG1        1.5850    8.9230   -0.7960 C.3    90  VAL90       0.0019
     31  CG2        2.5560    6.8190    0.0550 C.3    90  VAL90       0.0019
     32  N          1.7930   14.6940   -1.6730 N.3   106  MET106     -0.1230
     33  CA         1.3140   13.2990   -1.5590 C.3   106  MET106      0.1702
     34  C          0.2410   13.2000   -0.4940 C.2   106  MET106      0.2592
     35  O          0.1440   14.0480    0.4010 O.2   106  MET106     -0.2718
     36  CB         2.4390   12.3370   -1.1290 C.3   106  MET106      0.0401
     37  CG         3.8030   12.4680   -1.8470 C.3   106  MET106      0.0596
     38  SD         3.6210   12.5340   -3.6390 S.3   106  MET106     -0.1393
     39  CE         3.2240   10.7900   -3.9650 C.3   106  MET106      0.0692
     40  N         -0.5270   12.1270   -0.5840 N.am  107  GLU107     -0.1966
     41  CA        -1.4000   11.7070    0.5100 C.3   107  GLU107      0.1733
     42  C         -0.5930   11.5330    1.8140 C.2   107  GLU107      0.2616
     43  O          0.4670   10.9120    1.7920 O.2   107  GLU107     -0.2715
     44  CB        -2.0770   10.3890    0.1180 C.3   107  GLU107      0.0429
     45  CG        -3.2130   10.0650    1.0000 C.3   107  GLU107      0.1163
     46  CD        -3.8550    8.7600    0.6310 C.2   107  GLU107      0.3649
     47  OE1       -3.7780    7.8110    1.4360 O.co2 107  GLU107     -0.2457
     48  OE2       -4.4050    8.6760   -0.4700 O.co2 107  GLU107     -0.2457
     49  N         -1.0660   12.0900    2.9420 N.am  108  TYR108     -0.1960
     50  CA        -0.3320   11.9060    4.2070 C.3   108  TYR108      0.1771
     51  C         -0.6530   10.5340    4.8660 C.2   108  TYR108      0.2619
     52  O         -1.7870   10.1510    4.9950 O.2   108  TYR108     -0.2715
     53  CB        -0.5300   13.1260    5.1540 C.3   108  TYR108      0.0574
     54  CG         0.0670   12.9670    6.5480 C.ar  108  TYR108     -0.0198
     55  CD1        1.4220   12.7240    6.7120 C.ar  108  TYR108     -0.0009
     56  CD2       -0.7360   13.0540    7.7090 C.ar  108  TYR108     -0.0009
     57  CE1        1.9800   12.5370    7.9650 C.ar  108  TYR108      0.0417
     58  CE2       -0.1750   12.8590    8.9990 C.ar  108  TYR108      0.0417
     59  CZ         1.1870   12.6200    9.1100 C.ar  108  TYR108      0.1957
     60  OH         1.8100   12.4630   10.3370 O.3   108  TYR108     -0.2866
     61  N          0.3700    9.7850    5.2360 N.am  109  VAL109     -0.1977
     62  CA         0.2270    8.4260    5.7810 C.3   109  VAL109      0.1596
     63  C          0.8620    8.4340    7.1770 C.2   109  VAL109      0.2287
     64  O          2.0620    8.2920    7.3100 O.2   109  VAL109     -0.2864
     65  CB         0.8770    7.3630    4.8510 C.3   109  VAL109      0.0276
     66  CG1        0.6180    5.9510    5.3640 C.3   109  VAL109      0.0022
     67  CG2        0.3980    7.5080    3.3940 C.3   109  VAL109      0.0022
     68  N          6.9930    4.7510    9.0120 N.3   113  GLU113     -0.1245
     69  CA         7.6240    3.7720    8.1730 C.3   113  GLU113      0.1567
     70  C          7.5980    2.4060    8.8340 C.2   113  GLU113      0.2260
     71  O          7.7740    2.3080   10.0600 O.2   113  GLU113     -0.2867
     72  CB         9.1040    4.1620    7.9710 C.3   113  GLU113      0.0388
     73  CG         9.3240    5.5180    7.3230 C.3   113  GLU113      0.1160
     74  CD        10.7870    5.9610    7.3030 C.2   113  GLU113      0.3649
     75  OE1       11.6580    5.3250    7.9500 O.co2 113  GLU113     -0.2457
     76  OE2       11.0720    6.9750    6.6600 O.co2 113  GLU113     -0.2457
     77  N         12.2650    1.4150    5.1040 N.3   156  GLU156     -0.1231
     78  CA        12.2500    2.9020    5.1570 C.3   156  GLU156      0.1699
     79  C         11.2870    3.5130    4.1580 C.2   156  GLU156      0.2592
     80  O         10.8410    4.6490    4.3470 O.2   156  GLU156     -0.2718
     81  CB        13.6510    3.4820    4.8120 C.3   156  GLU156      0.0402
     82  CG        14.7620    3.2870    5.8210 C.3   156  GLU156      0.1161
     83  CD        15.6430    2.0950    5.5510 C.2   156  GLU156      0.3649
     84  OE1       15.1480    1.0560    5.0940 O.co2 156  GLU156     -0.2457
     85  OE2       16.8720    2.2200    5.7790 O.co2 156  GLU156     -0.2457
     86  N         11.0050    2.8170    3.0640 N.am  157  ASN157     -0.1974
     87  CA        10.1230    3.3690    1.9900 C.3   157  ASN157      0.1688
     88  C          8.6950    2.8170    1.9570 C.2   157  ASN157      0.2292
     89  O          7.9710    3.0950    0.9920 O.2   157  ASN157     -0.2864
     90  CB        10.7090    3.1060    0.5870 C.3   157  ASN157      0.1181
     91  CG        11.8430    4.0530    0.2350 C.2   157  ASN157      0.2629
     92  OD1       12.0070    5.0760    0.8780 O.2   157  ASN157     -0.2716
     93  ND2       12.6240    3.7190   -0.8180 N.am  157  ASN157     -0.0877
     94  N          5.2020    2.8160    3.9650 N.3   159  LEU159     -0.1245
     95  CA         4.5140    3.5490    5.0240 C.3   159  LEU159      0.1561
     96  C          3.3240    2.7150    5.4470 C.2   159  LEU159      0.2260
     97  O          2.7380    1.9940    4.6050 O.2   159  LEU159     -0.2867
     98  CB         4.1130    4.9700    4.5750 C.3   159  LEU159      0.0270
     99  CG         5.2320    5.9060    4.0520 C.3   159  LEU159      0.0019
    100  CD1        4.7240    7.2590    3.5160 C.3   159  LEU159      0.0001
    101  CD2        6.3510    6.1610    5.1290 C.3   159  LEU159      0.0001
    102  N          6.2590    4.5410   -0.9280 N.3   169  THR169     -0.1203
    103  CA         6.6520    5.9030   -1.2380 C.3   169  THR169      0.1994
    104  C          8.0390    5.9550   -1.8570 C.2   169  THR169      0.2617
    105  O          8.7230    4.9410   -1.9410 O.2   169  THR169     -0.2717
    106  CB         6.5160    6.8200    0.0090 C.3   169  THR169      0.1784
    107  OG1        6.4700    8.1760   -0.4540 O.3   169  THR169     -0.2211
    108  CG2        7.6470    6.6040    0.9780 C.3   169  THR169      0.0376
    109  N          8.4190    7.1280   -2.3360 N.am  170  ASP170     -0.1973
    110  CA         9.7150    7.3950   -3.0140 C.3   170  ASP170      0.1709
    111  C          9.9560    6.7440   -4.3470 C.2   170  ASP170      0.2293
    112  O         10.5650    5.6570   -4.4240 O.2   170  ASP170     -0.2864
    113  CB        10.9590    7.0970   -2.1540 C.3   170  ASP170      0.1436
    114  CG        12.1220    8.0530   -2.4690 C.2   170  ASP170      0.3671
    115  OD1       12.3250    8.3870   -3.6790 O.co2 170  ASP170     -0.2456
    116  OD2       12.8150    8.4860   -1.4870 O.co2 170  ASP170     -0.2456
    117  N          6.7160    9.5590   13.4560 N.3   312  PHE312     -0.1241
    118  CA         7.8360    9.9880   12.6290 C.3   312  PHE312      0.1605
    119  C          8.8540   10.5830   13.5570 C.2   312  PHE312      0.2264
    120  O          8.4670   11.1310   14.6020 O.2   312  PHE312     -0.2867
    121  CB         7.3940   11.0330   11.5660 C.3   312  PHE312      0.0534
    122  CG         6.5440   10.4330   10.4570 C.ar  312  PHE312     -0.0203
    123  CD1        7.1410    9.8010    9.3720 C.ar  312  PHE312     -0.0042
    124  CD2        5.1510   10.4300   10.5440 C.ar  312  PHE312     -0.0042
    125  CE1        6.3560    9.2160    8.3920 C.ar  312  PHE312     -0.0003
    126  CE2        4.3710    9.8440    9.5640 C.ar  312  PHE312     -0.0003
    127  CZ         4.9580    9.2300    8.4860 C.ar  312  PHE312     -0.0000
@<TRIPOS>BOND
     1   112   111    2
     2   111   110    1
     3    28    27    2
     4    39    38    1
     5   115   114   ar
     6    38    37    1
     7    27    26    1
     8   110   109    1
     9   110   113    1
    10    25    26    1
    11   114   113    1
    12   114   116   ar
    13   109   104   am
    14    26    29    1
    15   105   104    2
    16   104   103    1
    17    37    36    1
    18    32    33    1
    19    33    36    1
    20    33    34    1
    21   103   102    1
    22   103   106    1
    23    29    30    1
    24    29    31    1
    25    93    91   am
    26    40    34   am
    27    40    41    1
    28    34    35    2
    29    48    46   ar
    30   107   106    1
    31   106   108    1
    32    44    41    1
    33    44    45    1
    34    91    90    1
    35    91    92    2
    36    23    22    2
    37    41    42    1
    38    90    87    1
    39    46    45    1
    40    46    47   ar
    41    89    88    2
    42    22    21    1
    43    43    42    2
    44    42    49   am
    45    19    17    1
    46    88    87    1
    47    87    86    1
    48    20    21    1
    49    21    24    1
    50    49    50    1
    51    86    79   am
    52    17    14    1
    53    17    18    1
    54    14    13    1
    55    14    15    1
    56    67    65    1
    57   100    99    1
    58    94    95    1
    59    99    98    1
    60    99   101    1
    61    79    80    2
    62    79    78    1
    63    50    51    1
    64    50    53    1
    65    15    16    2
    66    98    95    1
    67    97    96    2
    68    81    78    1
    69    81    82    1
    70    65    66    1
    71    65    62    1
    72    51    52    2
    73    51    61   am
    74    95    96    1
    75    84    83   ar
    76    77    78    1
    77    53    54    1
    78    61    62    1
    79    12    11    2
    80    83    85   ar
    81    83    82    1
    82    11    10    1
    83    62    63    1
    84    10     9    1
    85    54    55   ar
    86    54    56   ar
    87    76    74   ar
    88    55    57   ar
    89     7     6    1
    90    63    64    2
    91     9     3   am
    92    74    73    1
    93    74    75   ar
    94    73    72    1
    95    56    58   ar
    96     5     6    1
    97     5     2    1
    98     3     4    2
    99     3     2    1
   100     6     8    1
   101    57    59   ar
   102    72    69    1
   103     1     2    1
   104    69    70    1
   105    69    68    1
   106   125   127   ar
   107   125   123   ar
   108   127   126   ar
   109    70    71    2
   110    58    59   ar
   111    59    60    1
   112   123   122   ar
   113   126   124   ar
   114   122   124   ar
   115   122   121    1
   116   121   118    1
   117   118   117    1
   118   118   119    1
   119   119   120    2
