@<TRIPOS>MOLECULE
tmp/3dneA00.pdb
 119 111 0 0 0
SMALL
GASTEIGER

@<TRIPOS>ATOM
      1  N          9.0540   15.8720    8.2260 N.3    37  LEU37      -0.1231
      2  CA         9.0410   14.4250    8.4770 C.3    37  LEU37       0.1693
      3  C         10.3190   13.7160    8.0540 C.2    37  LEU37       0.2592
      4  O         10.4860   12.5610    8.3940 O.2    37  LEU37      -0.2718
      5  CB         7.8580   13.7470    7.7330 C.3    37  LEU37       0.0284
      6  CG         6.4750   14.4460    7.8380 C.3    37  LEU37       0.0019
      7  CD1        5.4040   13.8520    6.8720 C.3    37  LEU37       0.0001
      8  CD2        6.0490   14.3210    9.2660 C.3    37  LEU37       0.0001
      9  N         11.1590   14.3470    7.2580 N.am   38  GLY38      -0.1957
     10  CA        12.3810   13.6950    6.7760 C.3    38  GLY38       0.1869
     11  C         13.1830   14.6630    5.9750 C.2    38  GLY38       0.2309
     12  O         12.6270   15.6220    5.4080 O.2    38  GLY38      -0.2863
     13  N         10.7610   16.3940    3.3210 N.3    45  VAL45      -0.1245
     14  CA         9.3380   16.0520    3.2170 C.3    45  VAL45       0.1561
     15  C          8.7100   16.6660    4.4390 C.2    45  VAL45       0.2260
     16  O          9.2180   16.4670    5.5310 O.2    45  VAL45      -0.2867
     17  CB         9.0630   14.5230    3.1680 C.3    45  VAL45       0.0252
     18  CG1        7.5780   14.2340    3.2040 C.3    45  VAL45       0.0019
     19  CG2        9.5950   13.9840    1.8280 C.3    45  VAL45       0.0019
     20  N          1.8240   14.9570    2.8490 N.3    58  ALA58      -0.1245
     21  CA         3.2720   14.9980    2.9810 C.3    58  ALA58       0.1562
     22  C          3.7720   15.6630    1.7310 C.2    58  ALA58       0.2260
     23  O          3.5280   15.1370    0.6180 O.2    58  ALA58      -0.2867
     24  CB         3.8420   13.5280    3.0390 C.3    58  ALA58       0.0290
     25  N          6.8770   16.7080   -0.5020 N.3    60  LYS60      -0.1245
     26  CA         8.3050   16.5370   -0.7570 C.3    60  LYS60       0.1561
     27  C          8.7480   17.7440   -1.4650 C.2    60  LYS60       0.2260
     28  O          8.1390   18.1430   -2.4700 O.2    60  LYS60      -0.2867
     29  CB         8.4930   15.3040   -1.6280 C.3    60  LYS60       0.0271
     30  CG         9.9550   15.0780   -2.0890 C.3    60  LYS60       0.0035
     31  CD        10.0770   13.6590   -2.7450 C.3    60  LYS60       0.0206
     32  CE         9.8110   12.5000   -1.8400 C.3    60  LYS60       0.1093
     33  NZ        10.3560   11.2520   -2.6600 N.3    60  LYS60      -0.1314
     34  N          1.6780    5.0910   -2.4830 N.3    92  VAL92      -0.1245
     35  CA         1.3370    6.3840   -1.9580 C.3    92  VAL92       0.1561
     36  C          0.6180    7.1900   -3.0960 C.2    92  VAL92       0.2260
     37  O          0.9660    7.0430   -4.2450 O.2    92  VAL92      -0.2867
     38  CB         2.6720    7.0700   -1.4800 C.3    92  VAL92       0.0252
     39  CG1        3.4410    7.6400   -2.7190 C.3    92  VAL92       0.0019
     40  CG2        2.3720    8.1010   -0.4910 C.3    92  VAL92       0.0019
     41  N          1.7850   14.3120   -1.4880 N.3   108  MET108     -0.1230
     42  CA         1.2020   13.0190   -1.3710 C.3   108  MET108      0.1702
     43  C          0.2410   13.0300   -0.2170 C.2   108  MET108      0.2592
     44  O          0.4060   13.7780    0.7320 O.2   108  MET108     -0.2718
     45  CB         2.2980   12.0030   -1.0140 C.3   108  MET108      0.0401
     46  CG         3.3800   11.8680   -2.1960 C.3   108  MET108      0.0596
     47  SD         4.8500   11.0940   -1.5640 S.3   108  MET108     -0.1393
     48  CE         5.6460   12.5050   -0.6820 C.3   108  MET108      0.0692
     49  N         -0.7010   12.1180   -0.2810 N.am  109  GLU109     -0.1966
     50  CA        -1.6150   11.8990    0.8130 C.3   109  GLU109      0.1733
     51  C         -0.8060   11.4400    2.0260 C.2   109  GLU109      0.2616
     52  O          0.0760   10.5700    1.8980 O.2   109  GLU109     -0.2715
     53  CB        -2.6680   10.8800    0.3490 C.3   109  GLU109      0.0429
     54  CG        -3.3090   10.1210    1.4390 C.3   109  GLU109      0.1163
     55  CD        -4.2260    9.0810    0.8680 C.2   109  GLU109      0.3649
     56  OE1       -4.0900    7.9340    1.3120 O.co2 109  GLU109     -0.2457
     57  OE2       -5.0180    9.4210   -0.0520 O.co2 109  GLU109     -0.2457
     58  N         -1.1220   12.0060    3.2010 N.am  110  TYR110     -0.1960
     59  CA        -0.3630   11.7380    4.4330 C.3   110  TYR110      0.1771
     60  C         -0.6430   10.3540    5.0200 C.2   110  TYR110      0.2619
     61  O         -1.7930    9.9400    5.2370 O.2   110  TYR110     -0.2715
     62  CB        -0.6240   12.8270    5.4780 C.3   110  TYR110      0.0574
     63  CG         0.1960   12.7170    6.7570 C.ar  110  TYR110     -0.0198
     64  CD1        1.5760   12.5560    6.7020 C.ar  110  TYR110     -0.0009
     65  CD2       -0.4250   12.7480    8.0390 C.ar  110  TYR110     -0.0009
     66  CE1        2.3330   12.4380    7.8790 C.ar  110  TYR110      0.0417
     67  CE2        0.3380   12.5820    9.2090 C.ar  110  TYR110      0.0417
     68  CZ         1.7030   12.4710    9.1340 C.ar  110  TYR110      0.1957
     69  OH         2.5180   12.3640   10.2360 O.3   110  TYR110     -0.2866
     70  N          0.4160    9.5770    5.2090 N.am  111  VAL111     -0.1977
     71  CA         0.2960    8.2740    5.8510 C.3   111  VAL111      0.1596
     72  C          0.8870    8.4470    7.2600 C.2   111  VAL111      0.2287
     73  O          2.1040    8.3510    7.4310 O.2   111  VAL111     -0.2864
     74  CB         1.0320    7.1740    5.0560 C.3   111  VAL111      0.0276
     75  CG1        0.8890    5.8490    5.7470 C.3   111  VAL111      0.0022
     76  CG2        0.5430    7.0930    3.5610 C.3   111  VAL111      0.0022
     77  N          7.0230    4.6790    8.8530 N.3   115  GLU115     -0.1196
     78  CA         7.6610    3.7100    7.9760 C.3   115  GLU115      0.1783
     79  C          7.6870    2.3970    8.6760 C.2   115  GLU115      0.2306
     80  O          7.8860    2.3560    9.8890 O.2   115  GLU115     -0.2863
     81  CB         9.1690    4.0990    7.6890 C.2   115  GLU115      0.0071
     82  CG         9.3950    5.4900    7.1770 C.2   115  GLU115      0.0834
     83  CD        10.9020    5.9360    7.0630 C.2   115  GLU115      0.3877
     84  OE1       11.8120    5.2370    7.6240 O.co2 115  GLU115     -0.2406
     85  OE2       11.1900    6.9270    6.2890 O.co2 115  GLU115     -0.2406
     86  N          5.3280    2.7840    3.9480 N.3   161  LEU161     -0.1245
     87  CA         4.5230    3.4720    4.9730 C.3   161  LEU161      0.1561
     88  C          3.3610    2.5880    5.3990 C.2   161  LEU161      0.2260
     89  O          2.9070    1.7220    4.6010 O.2   161  LEU161     -0.2867
     90  CB         4.0160    4.7910    4.4370 C.3   161  LEU161      0.0270
     91  CG         5.1490    5.6690    3.9160 C.3   161  LEU161      0.0019
     92  CD1        4.5420    6.7990    3.0480 C.3   161  LEU161      0.0001
     93  CD2        5.9570    6.2810    5.0730 C.3   161  LEU161      0.0001
     94  N          6.3860    4.4370   -0.9130 N.3   171  THR171     -0.1203
     95  CA         6.7420    5.8320   -1.2700 C.3   171  THR171      0.1993
     96  C          8.1340    5.9120   -1.8890 C.2   171  THR171      0.2614
     97  O          8.7870    4.8870   -2.1080 O.2   171  THR171     -0.2717
     98  CB         6.6720    6.7060   -0.0110 C.3   171  THR171      0.1784
     99  OG1        6.6740    8.0850   -0.3790 O.3   171  THR171     -0.2211
    100  CG2        7.8120    6.3980    1.0510 C.3   171  THR171      0.0376
    101  N          8.5830    7.1030   -2.2250 N.am  172  ASP172     -0.2026
    102  CA         9.9450    7.2970   -2.6870 C.3   172  ASP172      0.1395
    103  C         10.3010    6.6330   -3.9980 C.3   172  ASP172      0.2041
    104  O         11.0490    5.5780   -4.0480 O.3   172  ASP172     -0.2185
    105  CB        10.9760    7.0590   -1.5430 C.3   172  ASP172      0.1383
    106  CG        10.9150    8.2320   -0.5040 C.2   172  ASP172      0.3667
    107  OD1       10.1150    9.2330   -0.7220 O.co2 172  ASP172     -0.2456
    108  OD2       11.5720    8.1290    0.5320 O.co2 172  ASP172     -0.2456
    109  N          7.1010    9.7200   13.1690 N.3   314  PHE314     -0.1241
    110  CA         8.2350   10.1460   12.4290 C.3   314  PHE314      0.1605
    111  C          9.2230   10.7810   13.4150 C.2   314  PHE314      0.2264
    112  O          8.8140   11.2420   14.4780 O.2   314  PHE314     -0.2867
    113  CB         7.8390   11.1020   11.2790 C.3   314  PHE314      0.0534
    114  CG         6.9930   10.4310   10.1650 C.ar  314  PHE314     -0.0203
    115  CD1        7.5980    9.9010    9.0270 C.ar  314  PHE314     -0.0042
    116  CD2        5.6030   10.3170   10.2760 C.ar  314  PHE314     -0.0042
    117  CE1        6.8030    9.3150    8.0380 C.ar  314  PHE314     -0.0003
    118  CE2        4.8380    9.7220    9.3000 C.ar  314  PHE314     -0.0003
    119  CZ         5.4210    9.2110    8.2010 C.ar  314  PHE314     -0.0000
@<TRIPOS>BOND
     1    37    36    2
     2   104   103    1
     3   103   102    1
     4    36    35    1
     5    31    30    1
     6    31    32    1
     7    39    38    1
     8   102   101    1
     9   102   105    1
    10    33    32    1
    11    34    35    1
    12    28    27    2
    13   101    96   am
    14    46    47    1
    15    46    45    1
    16    97    96    2
    17    30    29    1
    18    35    38    1
    19    96    95    1
    20    29    26    1
    21    47    48    1
    22   105   106    1
    23    41    42    1
    24    38    40    1
    25    27    26    1
    26    42    45    1
    27    42    43    1
    28    95    94    1
    29    95    98    1
    30    26    25    1
    31   107   106   ar
    32   106   108   ar
    33    99    98    1
    34    49    43   am
    35    49    50    1
    36    43    44    2
    37    57    55   ar
    38    98   100    1
    39    53    50    1
    40    53    54    1
    41    23    22    2
    42    50    51    1
    43    55    56   ar
    44    55    54    1
    45    22    21    1
    46    19    17    1
    47    52    51    2
    48    51    58   am
    49    20    21    1
    50    21    24    1
    51    92    91    1
    52    17    18    1
    53    17    14    1
    54    58    59    1
    55    14    13    1
    56    14    15    1
    57    76    74    1
    58    91    90    1
    59    91    93    1
    60    86    87    1
    61    59    60    1
    62    59    62    1
    63    90    87    1
    64    15    16    2
    65    89    88    2
    66    87    88    1
    67    60    70   am
    68    60    61    2
    69    74    75    1
    70    74    71    1
    71    70    71    1
    72    12    11    2
    73    62    63    1
    74    71    72    1
    75    11    10    1
    76    85    83   ar
    77    64    63   ar
    78    64    66   ar
    79    63    65   ar
    80    10     9    1
    81     7     6    1
    82    83    82    1
    83    83    84   ar
    84    82    81    2
    85     9     3   am
    86    72    73    2
    87    81    78    1
    88     5     6    1
    89     5     2    1
    90     6     8    1
    91    66    68   ar
    92    78    79    1
    93    78    77    1
    94   117   119   ar
    95   117   115   ar
    96    65    67   ar
    97     3     4    2
    98     3     2    1
    99   119   118   ar
   100     1     2    1
   101    79    80    2
   102   115   114   ar
   103    68    67   ar
   104    68    69    1
   105   118   116   ar
   106   114   116   ar
   107   114   113    1
   108   113   110    1
   109   110   109    1
   110   110   111    1
   111   111   112    2
