@<TRIPOS>MOLECULE
tmp/3dngA00.pdb
 215 213 0 0 0
SMALL
GASTEIGER

@<TRIPOS>ATOM
      1  N          0.4720   -8.5820   19.0830 N.3    40  LEU40      -0.1245
      2  CA         0.8550   -9.6130   20.0460 C.3    40  LEU40       0.1561
      3  C         -0.3270   -9.9700   20.9340 C.2    40  LEU40       0.2260
      4  O         -0.5690  -11.1440   21.2320 O.2    40  LEU40      -0.2867
      5  CB         2.0100   -9.1280   20.9270 C.3    40  LEU40       0.0270
      6  CG         3.4330   -9.1150   20.3610 C.3    40  LEU40       0.0019
      7  CD1        4.3660   -8.4480   21.3630 C.3    40  LEU40       0.0001
      8  CD2        3.8920  -10.5370   20.0770 C.3    40  LEU40       0.0001
      9  N         12.3240    5.8560   34.3540 N.3    80  ILE80      -0.1231
     10  CA        10.9640    5.5830   33.8500 C.3    80  ILE80       0.1692
     11  C         10.9910    5.6610   32.3200 C.2    80  ILE80       0.2592
     12  O         11.4290    6.6560   31.7770 O.2    80  ILE80      -0.2718
     13  CB         9.9540    6.6390   34.3690 C.3    80  ILE80       0.0266
     14  CG1        9.9190    6.6210   35.8970 C.3    80  ILE80       0.0019
     15  CG2        8.5580    6.3780   33.7870 C.3    80  ILE80       0.0020
     16  CD1        9.5160    5.2780   36.4890 C.3    80  ILE80       0.0001
     17  N         10.5320    4.6320   31.6150 N.am   81  LEU81      -0.1966
     18  CA        10.5620    4.6700   30.1520 C.3    81  LEU81       0.1728
     19  C          9.2450    5.1310   29.5340 C.2    81  LEU81       0.2616
     20  O          9.2190    5.7130   28.4470 O.2    81  LEU81      -0.2715
     21  CB        10.9270    3.2870   29.5900 C.3    81  LEU81       0.0311
     22  CG        12.2180    2.6450   30.1130 C.3    81  LEU81       0.0022
     23  CD1       12.4250    1.2740   29.4680 C.3    81  LEU81       0.0001
     24  CD2       13.4040    3.5670   29.8260 C.3    81  LEU81       0.0001
     25  N          8.1510    4.8750   30.2380 N.am   82  ALA82      -0.1977
     26  CA         6.8240    5.2280   29.7540 C.3    82  ALA82       0.1597
     27  C          5.8190    4.7520   30.7930 C.2    82  ALA82       0.2287
     28  O          6.1970    4.0830   31.7440 O.2    82  ALA82      -0.2864
     29  CB         6.5660    4.5190   28.4240 C.3    82  ALA82       0.0319
     30  N         14.0720   -0.4240   22.7820 N.3   111  ASN111     -0.1240
     31  CA        13.2170   -0.8350   21.6720 C.3   111  ASN111      0.1653
     32  C         11.7650   -0.3780   21.8810 C.2   111  ASN111      0.2266
     33  O         11.1120   -0.7920   22.8290 O.2   111  ASN111     -0.2867
     34  CB        13.2920   -2.3610   21.5210 C.3   111  ASN111      0.1155
     35  CG        12.5120   -2.8720   20.3250 C.2   111  ASN111      0.2627
     36  OD1       11.2880   -3.0250   20.3830 O.2   111  ASN111     -0.2716
     37  ND2       13.2180   -3.1250   19.2240 N.am  111  ASN111     -0.0877
     38  N          8.9520   -1.0620   20.1970 N.3   113  PHE113     -0.1227
     39  CA         8.0000   -2.1760   20.1020 C.3   113  PHE113      0.1736
     40  C          7.8270   -2.9040   21.4460 C.2   113  PHE113      0.2595
     41  O          6.6980   -3.1720   21.8930 O.2   113  PHE113     -0.2718
     42  CB         8.4870   -3.1530   19.0180 C.3   113  PHE113      0.0547
     43  CG         7.9400   -4.5530   19.1460 C.ar  113  PHE113     -0.0202
     44  CD1        6.5910   -4.8250   18.8980 C.ar  113  PHE113     -0.0042
     45  CD2        8.7810   -5.6030   19.5190 C.ar  113  PHE113     -0.0042
     46  CE1        6.0910   -6.1220   19.0230 C.ar  113  PHE113     -0.0003
     47  CE2        8.2940   -6.9070   19.6490 C.ar  113  PHE113     -0.0003
     48  CZ         6.9420   -7.1690   19.4010 C.ar  113  PHE113     -0.0000
     49  N          8.9440   -3.2220   22.0900 N.am  114  LEU114     -0.1966
     50  CA         8.9000   -3.9140   23.3690 C.3   114  LEU114      0.1728
     51  C          8.2490   -3.0880   24.4780 C.2   114  LEU114      0.2616
     52  O          7.3910   -3.5860   25.2050 O.2   114  LEU114     -0.2715
     53  CB        10.3090   -4.3350   23.8000 C.3   114  LEU114      0.0311
     54  CG        10.4500   -5.2800   24.9800 C.3   114  LEU114      0.0022
     55  CD1        9.9800   -6.6700   24.6000 C.3   114  LEU114      0.0001
     56  CD2       11.8800   -5.3200   25.4900 C.3   114  LEU114      0.0001
     57  N          8.6620   -1.8320   24.6160 N.am  115  VAL115     -0.1977
     58  CA         8.0830   -0.9690   25.6460 C.3   115  VAL115      0.1596
     59  C          6.5820   -0.7600   25.3880 C.2   115  VAL115      0.2287
     60  O          5.7670   -0.7990   26.3140 O.2   115  VAL115     -0.2864
     61  CB         8.7900    0.4190   25.6860 C.3   115  VAL115      0.0276
     62  CG1        8.0890    1.3290   26.6840 C.3   115  VAL115      0.0022
     63  CG2       10.2770    0.2500   26.0520 C.3   115  VAL115      0.0022
     64  N          4.4510   -3.7560   26.3380 N.3   118  HIS118     -0.1226
     65  CA         4.2950   -3.7620   27.7920 C.3   118  HIS118      0.1752
     66  C          3.2720   -2.7250   28.2620 C.2   118  HIS118      0.2595
     67  O          2.4190   -3.0150   29.1070 O.2   118  HIS118     -0.2718
     68  CB         5.6500   -3.4710   28.4550 C.3   118  HIS118      0.0759
     69  CG         5.6100   -3.4590   29.9510 C.ar  118  HIS118      0.0818
     70  ND1        5.8170   -4.5900   30.7130 N.ar  118  HIS118     -0.2268
     71  CD2        5.3890   -2.4510   30.8270 C.ar  118  HIS118      0.1154
     72  CE1        5.7240   -4.2790   31.9930 C.ar  118  HIS118      0.1986
     73  NE2        5.4650   -2.9880   32.0900 N.ar  118  HIS118     -0.2212
     74  N          3.3640   -1.5110   27.7210 N.am  119  GLU119     -0.1979
     75  CA         2.4470   -0.4430   28.1120 C.3   119  GLU119      0.1602
     76  C          1.0010   -0.7440   27.7150 C.2   119  GLU119      0.2287
     77  O          0.0660   -0.4310   28.4560 O.2   119  GLU119     -0.2864
     78  CB         2.8850    0.8910   27.4900 C.3   119  GLU119      0.0415
     79  CG         4.1980    1.4460   28.0370 C.3   119  GLU119      0.1163
     80  CD         4.2330    1.5040   29.5610 C.2   119  GLU119      0.3649
     81  OE1        3.2360    1.9420   30.1700 O.co2 119  GLU119     -0.2457
     82  OE2        5.2660    1.1160   30.1500 O.co2 119  GLU119     -0.2457
     83  N          1.2560   -5.8190   36.8640 N.3   128  HIS128     -0.1241
     84  CA         2.5870   -6.3920   36.7330 C.3   128  HIS128      0.1621
     85  C          2.5750   -7.8600   37.1350 C.2   128  HIS128      0.2264
     86  O          1.7470   -8.2930   37.9380 O.2   128  HIS128     -0.2867
     87  CB         3.5910   -5.6280   37.5980 C.3   128  HIS128      0.0745
     88  CG         4.0810   -4.3600   36.9750 C.ar  128  HIS128      0.0817
     89  ND1        4.4790   -3.2720   37.7200 N.ar  128  HIS128     -0.2268
     90  CD2        4.2750   -4.0200   35.6800 C.ar  128  HIS128      0.1154
     91  CE1        4.8980   -2.3160   36.9110 C.ar  128  HIS128      0.1986
     92  NE2        4.7830   -2.7450   35.6680 N.ar  128  HIS128     -0.2212
     93  N         10.1490  -13.9670   33.1860 N.3   133  GLY133     -0.1210
     94  CA        10.1730  -14.1300   31.7420 C.3   133  GLY133      0.1956
     95  C          8.9340  -13.5820   31.0570 C.2   133  GLY133      0.2612
     96  O          8.7380  -13.7790   29.8550 O.2   133  GLY133     -0.2717
     97  N          8.1020  -12.8810   31.8180 N.am  134  ALA134     -0.1965
     98  CA         6.8690  -12.3140   31.2910 C.3   134  ALA134      0.1728
     99  C          7.0350  -10.9010   30.7520 C.2   134  ALA134      0.2616
    100  O          7.8500  -10.1220   31.2460 O.2   134  ALA134     -0.2715
    101  CB         5.8010  -12.3180   32.3760 C.3   134  ALA134      0.0334
    102  N          6.2470  -10.5770   29.7310 N.am  135  LEU135     -0.1977
    103  CA         6.2690   -9.2470   29.1390 C.3   135  LEU135      0.1596
    104  C          5.9100   -8.2230   30.2220 C.2   135  LEU135      0.2287
    105  O          6.4990   -7.1400   30.2900 O.2   135  LEU135     -0.2864
    106  CB         5.2470   -9.1690   28.0060 C.3   135  LEU135      0.0297
    107  CG         4.9920   -7.8060   27.3610 C.3   135  LEU135      0.0022
    108  CD1        6.2730   -7.2930   26.6990 C.3   135  LEU135      0.0001
    109  CD2        3.8800   -7.9390   26.3360 C.3   135  LEU135      0.0001
    110  N          6.5800   -8.2280   33.3350 N.3   137  TYR137     -0.1228
    111  CA         7.4830   -8.1770   34.4820 C.3   137  TYR137      0.1721
    112  C          7.7830   -6.6770   34.6300 C.2   137  TYR137      0.2437
    113  O          7.7940   -5.9400   33.6350 O.2   137  TYR137     -0.2733
    114  CB         8.7690   -8.9540   34.1980 C.3   137  TYR137      0.0547
    115  CG         9.7010   -9.0780   35.3850 C.ar  137  TYR137     -0.0200
    116  CD1        9.3310   -9.8030   36.5190 C.ar  137  TYR137     -0.0009
    117  CD2       10.9540   -8.4680   35.3730 C.ar  137  TYR137     -0.0009
    118  CE1       10.1880   -9.9160   37.6090 C.ar  137  TYR137      0.0417
    119  CE2       11.8170   -8.5750   36.4590 C.ar  137  TYR137      0.0417
    120  CZ        11.4300   -9.2990   37.5680 C.ar  137  TYR137      0.1957
    121  OH        12.2930   -9.4170   38.6300 O.3   137  TYR137     -0.2866
    122  N          8.0190   -6.2060   35.8680 N.am  138  PRO138     -0.2718
    123  CA         8.3090   -4.7960   36.1600 C.3   138  PRO138      0.1535
    124  C          9.5040   -4.1310   35.4690 C.2   138  PRO138      0.2599
    125  O          9.4180   -2.9660   35.0780 O.2   138  PRO138     -0.2715
    126  CB         8.4720   -4.7870   37.6770 C.3   138  PRO138      0.0310
    127  CG         7.5680   -5.8970   38.1200 C.3   138  PRO138      0.0237
    128  CD         7.9110   -6.9760   37.1210 C.3   138  PRO138      0.0939
    129  N         10.6080   -4.8610   35.3100 N.am  139  ASN139     -0.1959
    130  CA        11.8210   -4.2860   34.7190 C.3   139  ASN139      0.1819
    131  C         12.1660   -4.7090   33.2910 C.2   139  ASN139      0.2621
    132  O         12.1430   -5.8890   32.9540 O.2   139  ASN139     -0.2715
    133  CB        13.0120   -4.5750   35.6430 C.3   139  ASN139      0.1195
    134  CG        12.8620   -3.9250   37.0160 C.2   139  ASN139      0.2630
    135  OD1       13.3850   -4.4260   38.0090 O.2   139  ASN139     -0.2716
    136  ND2       12.1580   -2.7960   37.0700 N.am  139  ASN139     -0.0877
    137  N         12.5040   -3.7180   32.4700 N.am  140  TYR140     -0.1960
    138  CA        12.8630   -3.9180   31.0670 C.3   140  TYR140      0.1771
    139  C         14.1630   -4.6970   30.9180 C.2   140  TYR140      0.2619
    140  O         15.1510   -4.3960   31.5890 O.2   140  TYR140     -0.2715
    141  CB        12.9880   -2.5520   30.3790 C.3   140  TYR140      0.0574
    142  CG        13.5360   -2.5730   28.9650 C.ar  140  TYR140     -0.0198
    143  CD1       14.9100   -2.7240   28.7160 C.ar  140  TYR140     -0.0009
    144  CD2       12.6840   -2.4230   27.8760 C.ar  140  TYR140     -0.0009
    145  CE1       15.4120   -2.7210   27.4060 C.ar  140  TYR140      0.0417
    146  CE2       13.1660   -2.4150   26.5750 C.ar  140  TYR140      0.0417
    147  CZ        14.5290   -2.5650   26.3430 C.ar  140  TYR140      0.1957
    148  OH        14.9760   -2.5550   25.0440 O.3   140  TYR140     -0.2866
    149  N         14.1480   -5.6960   30.0380 N.am  141  ALA141     -0.1963
    150  CA        15.3160   -6.5300   29.7580 C.3   141  ALA141      0.1728
    151  C         15.1670   -7.1830   28.3800 C.2   141  ALA141      0.2616
    152  O         14.5810   -8.2650   28.2580 O.2   141  ALA141     -0.2715
    153  CB        15.4680   -7.6080   30.8330 C.3   141  ALA141      0.0334
    154  N         15.6990   -6.5320   27.3470 N.am  142  PHE142     -0.1960
    155  CA        15.6030   -7.0540   25.9860 C.3   142  PHE142      0.1771
    156  C         16.1670   -8.4700   25.8570 C.2   142  PHE142      0.2619
    157  O         17.3070   -8.7350   26.2420 O.2   142  PHE142     -0.2715
    158  CB        16.3380   -6.1380   25.0050 C.3   142  PHE142      0.0574
    159  CG        16.0230   -6.4270   23.5630 C.ar  142  PHE142     -0.0200
    160  CD1       14.8770   -5.9010   22.9690 C.ar  142  PHE142     -0.0042
    161  CD2       16.8490   -7.2560   22.8080 C.ar  142  PHE142     -0.0042
    162  CE1       14.5580   -6.1990   21.6450 C.ar  142  PHE142     -0.0003
    163  CE2       16.5370   -7.5610   21.4840 C.ar  142  PHE142     -0.0003
    164  CZ        15.3920   -7.0330   20.9010 C.ar  142  PHE142     -0.0000
    165  N         15.3650   -9.3730   25.3010 N.am  143  ARG143     -0.1977
    166  CA        15.7820  -10.7580   25.1220 C.3   143  ARG143      0.1597
    167  C         15.8890  -11.1410   23.6520 C.2   143  ARG143      0.2287
    168  O         14.8860  -11.1980   22.9330 O.2   143  ARG143     -0.2864
    169  CB        14.8000  -11.7090   25.8060 C.3   143  ARG143      0.0334
    170  CG        15.4300  -12.5930   26.8640 C.3   143  ARG143      0.0492
    171  CD        15.6590  -11.8390   28.1630 C.3   143  ARG143      0.2205
    172  NE        14.4030  -11.3670   28.7420 N.pl3 143  ARG143     -0.0865
    173  CZ        13.3700  -12.1510   29.0380 C.cat 143  ARG143      0.5346
    174  NH1       13.4330  -13.4560   28.8110 N.pl3 143  ARG143      0.1354
    175  NH2       12.2690  -11.6280   29.5610 N.pl3 143  ARG143      0.1354
    176  N         15.8010  -13.1440   20.5830 N.3   145  THR145     -0.1218
    177  CA        15.0680  -14.3560   20.2290 C.3   145  THR145      0.1862
    178  C         14.5130  -14.3190   18.8140 C.2   145  THR145      0.2287
    179  O         14.4850  -13.2730   18.1650 O.2   145  THR145     -0.2866
    180  CB        13.8780  -14.5990   21.1680 C.3   145  THR145      0.1770
    181  OG1       13.2660  -15.8540   20.8400 O.3   145  THR145     -0.2211
    182  CG2       12.8450  -13.4870   21.0080 C.3   145  THR145      0.0375
    183  N         11.4500  -16.1660   18.2450 N.3   147  ASN147     -0.1225
    184  CA        10.0110  -16.3360   18.4150 C.3   147  ASN147      0.1785
    185  C          9.3740  -15.0600   18.9560 C.2   147  ASN147      0.2597
    186  O          9.4550  -14.7630   20.1460 O.2   147  ASN147     -0.2718
    187  CB         9.7150  -17.4980   19.3630 C.3   147  ASN147      0.1169
    188  CG         8.2320  -17.6650   19.6220 C.2   147  ASN147      0.2627
    189  OD1        7.4520  -17.8930   18.6980 O.2   147  ASN147     -0.2716
    190  ND2        7.8350  -17.5420   20.8810 N.am  147  ASN147     -0.0877
    191  N          8.7280  -14.3140   18.0720 N.am  148  TYR148     -0.1962
    192  CA         8.0980  -13.0670   18.4600 C.3   148  TYR148      0.1771
    193  C          6.6200  -13.2400   18.7750 C.2   148  TYR148      0.2620
    194  O          5.7380  -12.7570   18.0620 O.2   148  TYR148     -0.2715
    195  CB         8.3390  -12.0200   17.3670 C.3   148  TYR148      0.0574
    196  CG         9.8080  -11.6540   17.2620 C.ar  148  TYR148     -0.0198
    197  CD1       10.4450  -11.5550   16.0250 C.ar  148  TYR148     -0.0009
    198  CD2       10.5710  -11.4390   18.4120 C.ar  148  TYR148     -0.0009
    199  CE1       11.8090  -11.2550   15.9380 C.ar  148  TYR148      0.0417
    200  CE2       11.9300  -11.1390   18.3360 C.ar  148  TYR148      0.0417
    201  CZ        12.5430  -11.0500   17.0990 C.ar  148  TYR148      0.1957
    202  OH        13.8890  -10.7610   17.0260 O.3   148  TYR148     -0.2866
    203  N          6.3700  -13.9540   19.8660 N.am  149  SER149     -0.1950
    204  CA         5.0200  -14.2050   20.3350 C.3   149  SER149      0.1924
    205  C          4.9840  -13.9560   21.8370 C.2   149  SER149      0.2314
    206  O          6.0120  -14.0180   22.5150 O.2   149  SER149     -0.2863
    207  CB         4.5960  -15.6450   20.0200 C.3   149  SER149      0.2116
    208  OG         5.3920  -16.5890   20.7130 O.3   149  SER149     -0.2180
    209  N          4.6220  -14.2610   25.7810 N.3   151  PRO151     -0.2116
    210  CA         5.0150  -15.3530   26.6780 C.3   151  PRO151      0.1372
    211  C          3.7300  -15.9260   27.2670 C.2   151  PRO151      0.2244
    212  O          2.7590  -15.1910   27.4760 O.2   151  PRO151     -0.2868
    213  CB         5.8760  -14.6510   27.7260 C.3   151  PRO151      0.0268
    214  CG         6.4790  -13.5220   26.9570 C.3   151  PRO151      0.0207
    215  CD         5.2930  -13.0090   26.1690 C.3   151  PRO151      0.0892
@<TRIPOS>BOND
     1   199   197   ar
     2   199   201   ar
     3   197   196   ar
     4   202   201    1
     5   201   200   ar
     6   196   195    1
     7   196   198   ar
     8   195   192    1
     9   194   193    2
    10   191   192    1
    11   191   185   am
    12   179   178    2
    13   183   184    1
    14   200   198   ar
    15   184   185    1
    16   184   187    1
    17   192   193    1
    18   189   188    2
    19   193   203   am
    20   178   177    1
    21    44    46   ar
    22    44    43   ar
    23   185   186    2
    24    42    43    1
    25    42    39    1
    26    46    48   ar
    27     1     2    1
    28    43    45   ar
    29    37    35   am
    30   187   188    1
    31    48    47   ar
    32    45    47   ar
    33   188   190   am
    34   203   204    1
    35   207   204    1
    36   207   208    1
    37     2     5    1
    38     2     3    1
    39     8     6    1
    40    39    38    1
    41    39    40    1
    42   177   176    1
    43   177   180    1
    44    35    36    2
    45    35    34    1
    46   204   205    1
    47     6     5    1
    48     6     7    1
    49   181   180    1
    50   164   163   ar
    51   164   162   ar
    52     3     4    2
    53   182   180    1
    54    40    41    2
    55    40    49   am
    56   163   161   ar
    57    34    31    1
    58   162   160   ar
    59    31    32    1
    60    31    30    1
    61   205   206    2
    62    32    33    2
    63    49    50    1
    64   161   159   ar
    65   168   167    2
    66   160   159   ar
    67    50    53    1
    68    50    51    1
    69   159   158    1
    70   167   166    1
    71    53    54    1
    72    51    57   am
    73    51    52    2
    74    55    54    1
    75    57    58    1
    76    54    56    1
    77   158   155    1
    78   148   147    1
    79   166   165    1
    80   166   169    1
    81   165   156   am
    82    59    58    1
    83    59    60    2
    84    58    61    1
    85    61    63    1
    86    61    62    1
    87   209   215    1
    88   209   210    1
    89   169   170    1
    90   156   155    1
    91   156   157    2
    92   155   154    1
    93   215   214    1
    94   109   107    1
    95    64    65    1
    96   147   146   ar
    97   147   145   ar
    98   146   144   ar
    99   210   211    1
   100   210   213    1
   101   108   107    1
   102   170   171    1
   103   214   213    1
   104   211   212    2
   105   154   151   am
   106   107   106    1
   107   145   143   ar
   108    78    79    1
   109    78    75    1
   110    76    75    1
   111    76    77    2
   112    74    75    1
   113    74    66   am
   114    65    66    1
   115    65    68    1
   116   144   142   ar
   117   106   103    1
   118    79    80    1
   119   171   172    1
   120   152   151    2
   121    66    67    2
   122   151   150    1
   123    29    26    1
   124    20    19    2
   125    68    69    1
   126   143   142   ar
   127   172   173    2
   128   174   173    1
   129   142   141    1
   130   173   175    1
   131   103   102    1
   132   103   104    1
   133    23    22    1
   134    19    18    1
   135    19    25   am
   136    80    82   ar
   137    80    81   ar
   138    21    22    1
   139    21    18    1
   140   102    99   am
   141    26    25    1
   142    26    27    1
   143   150   149    1
   144   150   153    1
   145    24    22    1
   146    96    95    2
   147    69    70   ar
   148    69    71   ar
   149   149   139   am
   150    18    17    1
   151   104   105    2
   152   141   138    1
   153    70    72   ar
   154    99   100    2
   155    99    98    1
   156    27    28    2
   157    71    73   ar
   158   139   138    1
   159   139   140    2
   160    95    94    1
   161    95    97   am
   162   138   137    1
   163    98    97    1
   164    98   101    1
   165    17    11   am
   166    94    93    1
   167    12    11    2
   168    72    73   ar
   169    11    10    1
   170   137   131   am
   171   132   131    2
   172   131   130    1
   173   110   111    1
   174   113   112    2
   175    15    13    1
   176    10     9    1
   177    10    13    1
   178   114   111    1
   179   114   115    1
   180    13    14    1
   181   111   112    1
   182   112   122   am
   183   130   129    1
   184   130   133    1
   185   125   124    2
   186   129   124   am
   187   117   115   ar
   188   117   119   ar
   189   115   116   ar
   190   124   123    1
   191   133   134    1
   192    92    90   ar
   193    92    91   ar
   194    90    88   ar
   195   122   123    1
   196   122   128    1
   197    14    16    1
   198   123   126    1
   199   119   120   ar
   200   116   118   ar
   201    84    83    1
   202    84    85    1
   203    84    87    1
   204    91    89   ar
   205    88    87    1
   206    88    89   ar
   207   134   136   am
   208   134   135    2
   209   128   127    1
   210    85    86    2
   211   120   118   ar
   212   120   121    1
   213   126   127    1
