@<TRIPOS>MOLECULE
tmp/3dnjA00.pdb
 114 112 0 0 0
SMALL
GASTEIGER

@<TRIPOS>ATOM
      1  N          7.4340  -10.8750   27.0090 N.3     6  ILE6       -0.1231
      2  CA         8.8760  -10.8490   27.2400 C.3     6  ILE6        0.1692
      3  C          9.5560  -11.5700   26.0990 C.2     6  ILE6        0.2592
      4  O          9.0080  -12.5050   25.5070 O.2     6  ILE6       -0.2718
      5  CB         9.2980  -11.4410   28.5960 C.3     6  ILE6        0.0266
      6  CG1        8.6490  -12.7990   28.8310 C.3     6  ILE6        0.0019
      7  CG2        9.0290  -10.4530   29.7080 C.3     6  ILE6        0.0020
      8  CD1        9.3010  -13.5470   29.9850 C.3     6  ILE6        0.0001
      9  N         10.7460  -11.0890   25.7780 N.am    7  LEU7       -0.1966
     10  CA        11.5360  -11.6150   24.6810 C.3     7  LEU7        0.1728
     11  C         12.7440  -12.3510   25.2300 C.2     7  LEU7        0.2616
     12  O         13.2870  -11.9960   26.2900 O.2     7  LEU7       -0.2715
     13  CB        12.0260  -10.4860   23.7760 C.3     7  LEU7        0.0311
     14  CG        10.9260   -9.6080   23.1970 C.3     7  LEU7        0.0022
     15  CD1       11.5310   -8.5570   22.3040 C.3     7  LEU7        0.0001
     16  CD2        9.9120  -10.4000   22.4410 C.3     7  LEU7        0.0001
     17  N         13.1580  -13.3940   24.5330 N.am    8  ASN8       -0.1958
     18  CA        14.3370  -14.1170   24.9160 C.3     8  ASN8        0.1819
     19  C         15.5990  -13.2880   24.6750 C.2     8  ASN8        0.2621
     20  O         15.6470  -12.4610   23.7770 O.2     8  ASN8       -0.2715
     21  CB        14.4400  -15.4150   24.1310 C.3     8  ASN8        0.1195
     22  CG        15.5220  -16.2860   24.6510 C.2     8  ASN8        0.2630
     23  OD1       15.5760  -16.5350   25.8420 O.2     8  ASN8       -0.2716
     24  ND2       16.4280  -16.6960   23.7870 N.am    8  ASN8       -0.0877
     25  N         16.6210  -13.5520   25.4750 N.am    9  ASP9       -0.1957
     26  CA        17.9590  -13.0560   25.2150 C.3     9  ASP9        0.1840
     27  C         18.9250  -14.0570   25.8330 C.2     9  ASP9        0.2622
     28  O         18.5100  -14.9800   26.5440 O.2     9  ASP9       -0.2715
     29  CB        18.1600  -11.6280   25.7490 C.3     9  ASP9        0.1450
     30  CG        18.1350  -11.5480   27.2550 C.2     9  ASP9        0.3671
     31  OD1       19.0500  -12.1000   27.8590 O.co2   9  ASP9       -0.2456
     32  OD2       17.2330  -10.9260   27.8510 O.co2   9  ASP9       -0.2456
     33  N         20.2130  -13.8860   25.5560 N.am   10  ASP10      -0.1957
     34  CA        21.2060  -14.8550   25.9950 C.3    10  ASP10       0.1840
     35  C         21.8930  -14.4920   27.2970 C.2    10  ASP10       0.2622
     36  O         22.8270  -15.1720   27.6940 O.2    10  ASP10      -0.2715
     37  CB        22.2850  -15.0510   24.9260 C.3    10  ASP10       0.1450
     38  CG        21.7560  -15.6910   23.6600 C.2    10  ASP10       0.3671
     39  OD1       20.6840  -16.3350   23.6860 O.co2  10  ASP10      -0.2456
     40  OD2       22.4320  -15.5510   22.6240 O.co2  10  ASP10      -0.2456
     41  N         21.4190  -13.4390   27.9600 N.am   11  TYR11      -0.1960
     42  CA        22.0880  -12.8580   29.1120 C.3    11  TYR11       0.1771
     43  C         21.2900  -12.9540   30.4100 C.2    11  TYR11       0.2620
     44  O         21.8520  -13.1670   31.4870 O.2    11  TYR11      -0.2715
     45  CB        22.3560  -11.3720   28.8430 C.3    11  TYR11       0.0574
     46  CG        23.1180  -11.0490   27.5770 C.ar   11  TYR11      -0.0198
     47  CD1       24.4780  -11.2810   27.5020 C.ar   11  TYR11      -0.0009
     48  CD2       22.4810  -10.5040   26.4680 C.ar   11  TYR11      -0.0009
     49  CE1       25.1930  -10.9740   26.3730 C.ar   11  TYR11       0.0417
     50  CE2       23.1900  -10.1870   25.3210 C.ar   11  TYR11       0.0417
     51  CZ        24.5480  -10.4260   25.2810 C.ar   11  TYR11       0.1957
     52  OH        25.2430  -10.1090   24.1440 O.3    11  TYR11      -0.2866
     53  N         19.9910  -12.7200   30.3380 N.am   12  THR12      -0.1937
     54  CA        19.1840  -12.6730   31.5340 C.3    12  THR12       0.2013
     55  C         19.0630  -14.0850   32.1230 C.2    12  THR12       0.2484
     56  O         18.7000  -15.0220   31.4140 O.2    12  THR12      -0.2729
     57  CB        17.7780  -12.1350   31.2130 C.3    12  THR12       0.1807
     58  OG1       17.8790  -10.8370   30.6160 O.3    12  THR12      -0.2208
     59  CG2       16.9210  -12.0130   32.4520 C.3    12  THR12       0.0379
     60  N         19.3500  -14.2550   33.4330 N.am   13  PRO13      -0.2715
     61  CA        19.2140  -15.5820   34.0310 C.3    13  PRO13       0.1536
     62  C         17.7860  -16.0980   34.0090 C.2    13  PRO13       0.2598
     63  O         16.8440  -15.3420   34.2630 O.2    13  PRO13      -0.2715
     64  CB        19.6660  -15.3640   35.4820 C.3    13  PRO13       0.0310
     65  CG        20.5570  -14.1920   35.4310 C.3    13  PRO13       0.0237
     66  CD        19.9660  -13.2970   34.3660 C.3    13  PRO13       0.0939
     67  N         17.6220  -17.3940   33.7800 N.am   14  MET14      -0.1978
     68  CA        16.3160  -18.0240   33.8440 C.3    14  MET14       0.1605
     69  C         15.6050  -17.7270   35.1490 C.2    14  MET14       0.2287
     70  O         14.4080  -17.4610   35.1620 O.2    14  MET14      -0.2864
     71  CB        16.4190  -19.5310   33.6810 C.3    14  MET14       0.0413
     72  CG        16.8070  -19.9680   32.2920 C.3    14  MET14       0.0598
     73  SD        16.8420  -21.7450   32.1480 S.3    14  MET14      -0.1393
     74  CE        17.1590  -21.9110   30.4240 C.3    14  MET14       0.0692
     75  N         13.9320  -14.3320   35.2030 N.3    17  VAL17      -0.1245
     76  CA        12.6910  -14.3150   34.4480 C.3    17  VAL17       0.1561
     77  C         11.5570  -14.9390   35.2640 C.2    17  VAL17       0.2260
     78  O         10.4480  -14.4290   35.2820 O.2    17  VAL17      -0.2867
     79  CB        12.8720  -14.9960   33.0720 C.3    17  VAL17       0.0252
     80  CG1       11.5640  -15.0450   32.3160 C.3    17  VAL17       0.0019
     81  CG2       13.9310  -14.2930   32.2600 C.3    17  VAL17       0.0019
     82  N          8.6270  -19.0490   31.1780 N.3    36  MET36      -0.1245
     83  CA        10.0500  -18.8200   30.9720 C.3    36  MET36       0.1570
     84  C         10.6330  -19.7920   29.9590 C.2    36  MET36       0.2261
     85  O         11.3750  -19.3910   29.0610 O.2    36  MET36      -0.2867
     86  CB        10.7760  -18.8780   32.3190 C.3    36  MET36       0.0387
     87  CG        12.2630  -18.7000   32.2360 C.3    36  MET36       0.0595
     88  SD        13.2120  -20.1730   31.7880 S.3    36  MET36      -0.1393
     89  CE        12.9230  -21.2000   33.2450 C.3    36  MET36       0.0692
     90  N          9.5280  -19.0660   26.4040 N.3    39  VAL39      -0.1231
     91  CA        10.2490  -17.9360   25.8430 C.3    39  VAL39       0.1692
     92  C         11.6750  -18.3380   25.4610 C.2    39  VAL39       0.2592
     93  O         12.1710  -17.9910   24.4020 O.2    39  VAL39      -0.2718
     94  CB        10.2720  -16.7560   26.8160 C.3    39  VAL39       0.0266
     95  CG1       11.0590  -15.6340   26.2260 C.3    39  VAL39       0.0020
     96  CG2        8.8470  -16.3170   27.1510 C.3    39  VAL39       0.0020
     97  N         12.3370  -19.0690   26.3460 N.am   40  HIS40      -0.1976
     98  CA        13.6890  -19.5430   26.0890 C.3    40  HIS40       0.1656
     99  C         13.7510  -20.3150   24.7770 C.2    40  HIS40       0.2291
    100  O         14.6840  -20.1440   23.9780 O.2    40  HIS40      -0.2864
    101  CB        14.0990  -20.4180   27.2640 C.3    40  HIS40       0.0771
    102  CG        15.4410  -21.0500   27.1230 C.ar   40  HIS40       0.0820
    103  ND1       16.6230  -20.3510   27.2600 N.ar   40  HIS40      -0.2267
    104  CD2       15.7840  -22.3330   26.8700 C.ar   40  HIS40       0.1154
    105  CE1       17.6360  -21.1810   27.0890 C.ar   40  HIS40       0.1986
    106  NE2       17.1560  -22.3880   26.8540 N.ar   40  HIS40      -0.2212
    107  N         16.8860   -7.8050   29.7330 N.3    73  LEU73      -0.1245
    108  CA        15.5650   -8.3460   29.4170 C.3    73  LEU73       0.1561
    109  C         14.6610   -7.3180   28.7530 C.2    73  LEU73       0.2260
    110  O         14.4420   -6.2380   29.2890 O.2    73  LEU73      -0.2867
    111  CB        14.9100   -8.8110   30.7170 C.3    73  LEU73       0.0270
    112  CG        13.5210   -9.4730   30.6070 C.3    73  LEU73       0.0019
    113  CD1       13.5830  -10.7640   29.8310 C.3    73  LEU73       0.0001
    114  CD2       12.9430   -9.7080   31.9820 C.3    73  LEU73       0.0001
@<TRIPOS>BOND
     1    15    14    1
     2    16    14    1
     3    40    38   ar
     4    14    13    1
     5    38    39   ar
     6    38    37    1
     7    13    10    1
     8    20    19    2
     9    24    22   am
    10   100    99    2
    11    21    22    1
    12    21    18    1
    13    52    51    1
    14    93    92    2
    15    17    18    1
    16    17    11   am
    17    22    23    2
    18    19    18    1
    19    19    25   am
    20    10    11    1
    21    10     9    1
    22    99    98    1
    23    37    34    1
    24    26    25    1
    25    26    29    1
    26    26    27    1
    27    11    12    2
    28    51    50   ar
    29    51    49   ar
    30    50    48   ar
    31    92    91    1
    32    92    97   am
    33     4     3    2
    34    33    27   am
    35    33    34    1
    36    29    30    1
    37     9     3   am
    38    27    28    2
    39    91    90    1
    40    91    94    1
    41    34    35    1
    42    98    97    1
    43    98   101    1
    44     3     2    1
    45    95    94    1
    46    49    47   ar
    47    48    46   ar
    48    94    96    1
    49   106   104   ar
    50   106   105   ar
    51   104   102   ar
    52     1     2    1
    53   105   103   ar
    54   102   103   ar
    55   102   101    1
    56     2     5    1
    57    30    32   ar
    58    30    31   ar
    59    35    36    2
    60    35    41   am
    61    47    46   ar
    62    46    45    1
    63    41    42    1
    64     5     6    1
    65     5     7    1
    66   109   110    2
    67   109   108    1
    68     6     8    1
    69    45    42    1
    70    85    84    2
    71    42    43    1
    72   108   107    1
    73   108   111    1
    74   113   112    1
    75    84    83    1
    76    53    43   am
    77    53    54    1
    78    43    44    2
    79    74    73    1
    80   112   111    1
    81   112   114    1
    82    58    57    1
    83    83    82    1
    84    83    86    1
    85    57    54    1
    86    57    59    1
    87    56    55    2
    88    54    55    1
    89    88    87    1
    90    88    89    1
    91    55    60   am
    92    73    72    1
    93    87    86    1
    94    81    79    1
    95    72    71    1
    96    80    79    1
    97    79    76    1
    98    60    61    1
    99    60    66    1
   100    71    68    1
   101    67    68    1
   102    67    62   am
   103    68    69    1
   104    62    61    1
   105    62    63    2
   106    61    64    1
   107    66    65    1
   108    76    75    1
   109    76    77    1
   110    69    70    2
   111    77    78    2
   112    65    64    1
