@<TRIPOS>MOLECULE
tmp/3dntB00.pdb
 221 208 0 0 0
SMALL
GASTEIGER

@<TRIPOS>ATOM
      1  N         37.3100    9.5120   11.4260 N.3    64  ASP64      -0.1239
      2  CA        36.5570    9.4690   10.1760 C.3    64  ASP64       0.1674
      3  C         37.1750   10.3590    9.0930 C.2    64  ASP64       0.2266
      4  O         37.1070   10.0400    7.9000 O.2    64  ASP64      -0.2867
      5  CB        35.1260    9.9750   10.3740 C.3    64  ASP64       0.1410
      6  CG        34.2480    9.0410   11.1930 C.2    64  ASP64       0.3668
      7  OD1       34.7520    8.1940   11.9610 O.co2  64  ASP64      -0.2456
      8  OD2       33.0200    9.2080   11.0670 O.co2  64  ASP64      -0.2456
      9  N         38.6690    2.7910   20.8650 N.3    95  VAL95      -0.1245
     10  CA        37.3680    2.6530   21.5180 C.3    95  VAL95       0.1561
     11  C         37.1200    1.1750   21.7590 C.2    95  VAL95       0.2260
     12  O         37.3920    0.3330   20.8940 O.2    95  VAL95      -0.2867
     13  CB        36.2310    3.2400   20.6540 C.3    95  VAL95       0.0252
     14  CG1       34.8860    2.8820   21.2360 C.3    95  VAL95       0.0019
     15  CG2       36.3660    4.7380   20.6210 C.3    95  VAL95       0.0019
     16  N         40.4710    7.3920   18.0650 N.3   146  VAL146     -0.1231
     17  CA        39.0430    7.5150   18.4030 C.3   146  VAL146      0.1692
     18  C         38.3950    7.9040   17.0980 C.2   146  VAL146      0.2592
     19  O         38.9170    8.7630   16.3740 O.2   146  VAL146     -0.2718
     20  CB        38.7780    8.6090   19.4630 C.3   146  VAL146      0.0266
     21  CG1       37.2990    8.6880   19.7480 C.3   146  VAL146      0.0020
     22  CG2       39.5490    8.2740   20.7280 C.3   146  VAL146      0.0020
     23  N         37.2880    7.2560   16.7600 N.am  147  ALA147     -0.1966
     24  CA        36.6190    7.5630   15.5000 C.3   147  ALA147      0.1728
     25  C         35.8080    8.8510   15.5880 C.2   147  ALA147      0.2617
     26  O         35.8740    9.5770   16.5860 O.2   147  ALA147     -0.2715
     27  CB        35.7190    6.3630   15.0680 C.3   147  ALA147      0.0334
     28  N         35.0510    9.1470   14.5310 N.am  148  GLY148     -0.1940
     29  CA        34.2420   10.3560   14.4990 C.3   148  GLY148      0.2014
     30  C         34.9140   11.4840   13.7230 C.2   148  GLY148      0.2639
     31  O         36.1310   11.5170   13.6330 O.2   148  GLY148     -0.2714
     32  N         34.1160   12.3940   13.1610 N.am  149  ALA149     -0.1963
     33  CA        34.6400   13.5330   12.3940 C.3   149  ALA149      0.1728
     34  C         35.0750   14.7450   13.2150 C.2   149  ALA149      0.2616
     35  O         35.8400   15.5720   12.7060 O.2   149  ALA149     -0.2715
     36  CB        33.5840   14.0010   11.3510 C.3   149  ALA149      0.0334
     37  N         34.6070   14.8710   14.4600 N.am  150  GLN150     -0.1977
     38  CA        34.9600   16.0660   15.2450 C.3   150  GLN150      0.1601
     39  C         36.3980   16.0600   15.7700 C.2   150  GLN150      0.2287
     40  O         36.9100   15.0330   16.2180 O.2   150  GLN150     -0.2864
     41  CB        33.9510   16.2590   16.4060 C.3   150  GLN150      0.0394
     42  CG        33.9920   17.6400   17.0940 C.3   150  GLN150      0.0908
     43  CD        32.7770   17.9190   17.9990 C.2   150  GLN150      0.2608
     44  OE1       31.6990   17.3600   17.8000 O.2   150  GLN150     -0.2717
     45  NE2       32.9510   18.8110   18.9840 N.am  150  GLN150     -0.0878
     46  N         39.2880   16.0690   18.1390 N.3   152  LYS152     -0.1245
     47  CA        39.2120   15.6340   19.5200 C.3   152  LYS152      0.1561
     48  C         40.5170   14.9870   19.9720 C.2   152  LYS152      0.2260
     49  O         41.4780   14.9120   19.2210 O.2   152  LYS152     -0.2867
     50  CB        38.0740   14.6000   19.6410 C.3   152  LYS152      0.0271
     51  CG        38.5590   13.1670   19.5940 C.3   152  LYS152      0.0035
     52  CD        37.7130   12.1860   18.7810 C.3   152  LYS152      0.0206
     53  CE        36.2180   12.4670   18.7320 C.3   152  LYS152      0.1093
     54  NZ        35.9020   12.5290   17.2590 N.3   152  LYS152     -0.1314
     55  N         37.0130   11.2530   26.4880 N.3   174  ILE174     -0.1245
     56  CA        37.1460   11.6780   25.1010 C.3   174  ILE174      0.1561
     57  C         36.9080   13.1830   25.1830 C.2   174  ILE174      0.2260
     58  O         35.8780   13.6340   25.7170 O.2   174  ILE174     -0.2867
     59  CB        36.1200   10.9540   24.2370 C.3   174  ILE174      0.0252
     60  CG1       36.6080    9.5110   24.0530 C.3   174  ILE174      0.0019
     61  CG2       36.0400   11.6120   22.8250 C.3   174  ILE174      0.0019
     62  CD1       35.5330    8.5870   23.4700 C.3   174  ILE174      0.0001
     63  N         36.3810   16.6010   23.2670 N.3   176  LYS176     -0.1245
     64  CA        35.9130   17.1250   21.9780 C.3   176  LYS176      0.1561
     65  C         36.2200   18.6080   21.8700 C.2   176  LYS176      0.2260
     66  O         36.0420   19.3590   22.8180 O.2   176  LYS176     -0.2867
     67  CB        34.4080   16.8350   21.8550 C.3   176  LYS176      0.0271
     68  CG        34.1060   15.3280   22.0290 C.3   176  LYS176      0.0035
     69  CD        32.6450   14.9030   21.7810 C.3   176  LYS176      0.0206
     70  CE        32.2780   15.0290   20.3150 C.3   176  LYS176      0.1093
     71  NZ        30.9180   14.5090   20.0250 N.3   176  LYS176     -0.1314
     72  N         26.7100   20.5710   22.7100 N.3   184  GLU184     -0.1245
     73  CA        26.6960   19.1930   23.2140 C.3   184  GLU184      0.1567
     74  C         26.6240   19.1160   24.7430 C.2   184  GLU184      0.2260
     75  O         25.9540   18.2270   25.2980 O.2   184  GLU184     -0.2867
     76  CB        27.9180   18.4290   22.6860 C.3   184  GLU184      0.0388
     77  CG        27.8600   16.9680   23.0190 C.3   184  GLU184      0.1160
     78  CD        28.7730   16.1050   22.1730 C.2   184  GLU184      0.3649
     79  OE1       29.6600   16.6220   21.4590 O.co2 184  GLU184     -0.2457
     80  OE2       28.5870   14.8730   22.2340 O.co2 184  GLU184     -0.2457
     81  N         26.6190    9.7320   28.9450 N.3   199  PRO199     -0.2116
     82  CA        27.7780    9.9490   29.8010 C.3   199  PRO199      0.1372
     83  C         27.7620   11.3340   30.4270 C.2   199  PRO199      0.2244
     84  O         27.1230   12.2590   29.9140 O.2   199  PRO199     -0.2868
     85  CB        28.9490    9.7820   28.8410 C.3   199  PRO199      0.0268
     86  CG        28.3910   10.3160   27.5320 C.3   199  PRO199      0.0207
     87  CD        27.0120    9.6810   27.5230 C.3   199  PRO199      0.0892
     88  N         34.1980   14.2150   27.8920 N.3   214  VAL214     -0.1231
     89  CA        33.1460   13.2240   28.0580 C.3   214  VAL214      0.1692
     90  C         33.6720   11.9460   28.7370 C.2   214  VAL214      0.2592
     91  O         34.6210   11.3400   28.2510 O.2   214  VAL214     -0.2718
     92  CB        32.5650   12.8570   26.6670 C.3   214  VAL214      0.0266
     93  CG1       31.3760   11.9270   26.8250 C.3   214  VAL214      0.0020
     94  CG2       32.1590   14.1750   25.9080 C.3   214  VAL214      0.0020
     95  N         33.0600   11.5370   29.8470 N.am  215  GLU215     -0.1966
     96  CA        33.4870   10.3250   30.5460 C.3   215  GLU215      0.1733
     97  C         33.2510    9.0970   29.6890 C.2   215  GLU215      0.2616
     98  O         32.1340    8.8750   29.2260 O.2   215  GLU215     -0.2715
     99  CB        32.7080   10.1520   31.8580 C.3   215  GLU215      0.0429
    100  CG        33.0050   11.1990   32.8990 C.3   215  GLU215      0.1163
    101  CD        32.2540   10.9560   34.2100 C.2   215  GLU215      0.3649
    102  OE1       32.3740   11.8140   35.1150 O.co2 215  GLU215     -0.2457
    103  OE2       31.5550    9.9270   34.3400 O.co2 215  GLU215     -0.2457
    104  N         34.2910    8.2800   29.5130 N.am  216  ARG216     -0.1963
    105  CA        34.1820    7.0730   28.6910 C.3   216  ARG216      0.1729
    106  C         33.4650    5.9420   29.4270 C.2   216  ARG216      0.2616
    107  O         33.7560    5.6470   30.5890 O.2   216  ARG216     -0.2715
    108  CB        35.5730    6.5910   28.2730 C.3   216  ARG216      0.0348
    109  CG        36.3320    7.5810   27.3570 C.3   216  ARG216      0.0492
    110  CD        37.7240    7.0490   26.9710 C.3   216  ARG216      0.2205
    111  NE        37.5730    5.9390   26.0280 N.pl3 216  ARG216     -0.0865
    112  CZ        38.3090    5.7870   24.9430 C.cat 216  ARG216      0.5346
    113  NH1       39.2810    6.6510   24.6480 N.pl3 216  ARG216      0.1354
    114  NH2       38.0220    4.8130   24.1020 N.pl3 216  ARG216      0.1354
    115  N         32.5140    5.3170   28.7540 N.am  217  PHE217     -0.1960
    116  CA        31.8040    4.1870   29.3420 C.3   217  PHE217      0.1771
    117  C         32.4000    2.8690   28.8690 C.2   217  PHE217      0.2619
    118  O         31.8750    1.7990   29.1750 O.2   217  PHE217     -0.2715
    119  CB        30.2870    4.2560   29.0670 C.3   217  PHE217      0.0574
    120  CG        29.9250    4.5550   27.6380 C.ar  217  PHE217     -0.0200
    121  CD1       30.1610    3.6220   26.6340 C.ar  217  PHE217     -0.0042
    122  CD2       29.3300    5.7750   27.3080 C.ar  217  PHE217     -0.0042
    123  CE1       29.8170    3.8820   25.2970 C.ar  217  PHE217     -0.0003
    124  CE2       28.9740    6.0560   25.9810 C.ar  217  PHE217     -0.0003
    125  CZ        29.2210    5.1060   24.9710 C.ar  217  PHE217     -0.0000
    126  N         33.4890    2.9440   28.0940 N.am  218  ASP218     -0.1971
    127  CA        34.1910    1.7240   27.6770 C.3   218  ASP218      0.1709
    128  C         35.4090    1.5770   28.6000 C.2   218  ASP218      0.2293
    129  O         36.3810    0.8850   28.2760 O.2   218  ASP218     -0.2864
    130  CB        34.6130    1.7470   26.1730 C.3   218  ASP218      0.1436
    131  CG        35.5680    2.8900   25.8240 C.2   218  ASP218      0.3671
    132  OD1       35.7760    3.8040   26.6460 O.co2 218  ASP218     -0.2456
    133  OD2       36.1310    2.8720   24.7060 O.co2 218  ASP218     -0.2456
    134  N         33.4570   -3.1310   23.0890 N.3   233  GLN233     -0.1245
    135  CA        32.3730   -2.3020   22.5650 C.3   233  GLN233      0.1566
    136  C         32.5210   -2.1120   21.0760 C.2   233  GLN233      0.2260
    137  O         33.6300   -2.0770   20.5730 O.2   233  GLN233     -0.2867
    138  CB        32.4790   -0.9200   23.2150 C.3   233  GLN233      0.0367
    139  CG        31.5250    0.1270   22.7100 C.3   233  GLN233      0.0905
    140  CD        31.7400    1.4510   23.4320 C.2   233  GLN233      0.2608
    141  OE1       31.7910    1.4760   24.6610 O.2   233  GLN233     -0.2717
    142  NE2       31.8630    2.5550   22.6740 N.am  233  GLN233     -0.0878
    143  N         30.4640   -0.0890   17.4500 N.3   235  ASP235     -0.1239
    144  CA        29.3350    0.7060   16.9650 C.3   235  ASP235      0.1674
    145  C         28.4770   -0.1120   15.9900 C.2   235  ASP235      0.2266
    146  O         28.8380   -1.2580   15.6460 O.2   235  ASP235     -0.2867
    147  CB        29.8130    2.0560   16.3680 C.3   235  ASP235      0.1410
    148  CG        30.5920    1.9340   15.0690 C.2   235  ASP235      0.3668
    149  OD1       31.5830    2.6900   14.9480 O.co2 235  ASP235     -0.2456
    150  OD2       30.2370    1.1540   14.1570 O.co2 235  ASP235     -0.2456
    151  N         27.0520    5.1280    7.1470 N.3   246  LYS246     -0.1245
    152  CA        26.4830    5.2530    8.4790 C.3   246  LYS246      0.1561
    153  C         25.1090    5.9220    8.4760 C.2   246  LYS246      0.2260
    154  O         24.2930    5.6480    9.3580 O.2   246  LYS246     -0.2867
    155  CB        27.4400    6.0040    9.4070 C.3   246  LYS246      0.0271
    156  CG        27.6470    7.4620    9.0650 C.3   246  LYS246      0.0035
    157  CD        28.7140    8.0590    9.9710 C.3   246  LYS246      0.0206
    158  CE        28.8760    9.5460    9.7670 C.3   246  LYS246      0.1093
    159  NZ        29.7010    9.8110    8.5610 N.3   246  LYS246     -0.1314
    160  N         21.9430   14.1940   13.7600 N.3   286  GLN286     -0.1245
    161  CA        23.0620   13.3290   13.4060 C.3   286  GLN286      0.1566
    162  C         23.1110   12.0000   14.1280 C.2   286  GLN286      0.2260
    163  O         24.1940   11.4680   14.4130 O.2   286  GLN286     -0.2867
    164  CB        24.3640   14.0910   13.6350 C.3   286  GLN286      0.0367
    165  CG        24.4690   15.3720   12.8660 C.3   286  GLN286      0.0905
    166  CD        25.7420   16.0990   13.2710 C.2   286  GLN286      0.2608
    167  OE1       26.8350   15.6250   12.9980 O.2   286  GLN286     -0.2717
    168  NE2       25.6010   17.2230   13.9650 N.am  286  GLN286     -0.0878
    169  N         23.1840    9.0070   13.3850 N.3   288  HIS288     -0.1241
    170  CA        23.4780    7.9430   12.4150 C.3   288  HIS288      0.1621
    171  C         23.9570    6.6670   13.1110 C.2   288  HIS288      0.2264
    172  O         24.1000    6.6340   14.3310 O.2   288  HIS288     -0.2867
    173  CB        24.5230    8.4120   11.4100 C.3   288  HIS288      0.0745
    174  CG        25.7760    8.8910   12.0590 C.ar  288  HIS288      0.0817
    175  ND1       26.6150    8.0460   12.7500 N.ar  288  HIS288     -0.2268
    176  CD2       26.2970   10.1320   12.1850 C.ar  288  HIS288      0.1154
    177  CE1       27.6050    8.7480   13.2780 C.ar  288  HIS288      0.1986
    178  NE2       27.4350   10.0190   12.9490 N.ar  288  HIS288     -0.2212
    179  N         26.8680    5.1010   13.4800 N.3   290  LYS290     -0.1231
    180  CA        28.0630    5.0210   14.3100 C.3   290  LYS290      0.1693
    181  C         27.8470    5.7010   15.6630 C.2   290  LYS290      0.2592
    182  O         28.7080    5.6010   16.5520 O.2   290  LYS290     -0.2718
    183  CB        29.2830    5.6510   13.6150 C.3   290  LYS290      0.0285
    184  CG        29.8890    4.7540   12.5510 C.3   290  LYS290      0.0035
    185  CD        31.1270    5.3970   11.8870 C.3   290  LYS290      0.0206
    186  CE        32.3290    5.5310   12.8240 C.3   290  LYS290      0.1093
    187  NZ        33.0210    4.2250   13.0590 N.3   290  LYS290     -0.1314
    188  N         26.7180    6.4200   15.8100 N.am  291  ASN291     -0.1974
    189  CA        26.4170    7.0720   17.0650 C.3   291  ASN291      0.1688
    190  C         25.6310    6.2010   18.0520 C.2   291  ASN291      0.2292
    191  O         25.0980    6.7000   19.0480 O.2   291  ASN291     -0.2864
    192  CB        25.7450    8.4520   16.8050 C.3   291  ASN291      0.1181
    193  CG        26.7990    9.5350   16.4690 C.2   291  ASN291      0.2629
    194  OD1       27.9810    9.3340   16.7260 O.2   291  ASN291     -0.2716
    195  ND2       26.3760   10.6730   15.9340 N.am  291  ASN291     -0.0877
    196  N         26.1310    2.2030   19.9370 N.3   293  SER293     -0.1217
    197  CA        27.0530    1.0910   20.1080 C.3   293  SER293      0.1889
    198  C         26.4830    0.0550   21.0730 C.2   293  SER293      0.2288
    199  O         25.4640    0.2790   21.7600 O.2   293  SER293     -0.2866
    200  CB        28.4130    1.5800   20.6810 C.3   293  SER293      0.2089
    201  OG        29.0950    2.4520   19.7820 O.3   293  SER293     -0.2183
    202  N         25.3780    8.8720   22.9410 N.3   308  TYR308     -0.1227
    203  CA        26.4640    9.8470   22.9280 C.3   308  TYR308      0.1736
    204  C         26.4390   10.6570   21.6310 C.2   308  TYR308      0.2595
    205  O         25.6800   10.3450   20.7190 O.2   308  TYR308     -0.2718
    206  CB        27.8300    9.0990   23.0630 C.3   308  TYR308      0.0548
    207  CG        28.0280    7.9870   22.0410 C.ar  308  TYR308     -0.0200
    208  CD1       28.6230    8.2420   20.8090 C.ar  308  TYR308     -0.0009
    209  CD2       27.5570    6.6820   22.2900 C.ar  308  TYR308     -0.0009
    210  CE1       28.7420    7.2390   19.8320 C.ar  308  TYR308      0.0417
    211  CE2       27.6860    5.6750   21.3280 C.ar  308  TYR308      0.0417
    212  CZ        28.2740    5.9580   20.0970 C.ar  308  TYR308      0.1957
    213  OH        28.4110    4.9540   19.1400 O.3   308  TYR308     -0.2866
    214  N         27.3070   11.6720   21.5640 N.am  309  ASP309     -0.1974
    215  CA        27.4440   12.5720   20.4210 C.3   309  ASP309      0.1709
    216  C         26.0940   13.1830   20.1140 C.2   309  ASP309      0.2293
    217  O         25.4650   12.8890   19.0900 O.2   309  ASP309     -0.2864
    218  CB        27.9930   11.8130   19.2080 C.3   309  ASP309      0.1436
    219  CG        28.4430   12.7450   18.1050 C.2   309  ASP309      0.3671
    220  OD1       28.5090   13.9800   18.3450 O.co2 309  ASP309     -0.2456
    221  OD2       28.7580   12.2470   17.0140 O.co2 309  ASP309     -0.2456
@<TRIPOS>BOND
     1   151   152    1
     2     4     3    2
     3   153   152    1
     4   153   154    2
     5   152   155    1
     6   159   158    1
     7   156   155    1
     8   156   157    1
     9     3     2    1
    10   158   157    1
    11     2     5    1
    12     2     1    1
    13     5     6    1
    14     8     6   ar
    15     6     7   ar
    16    36    33    1
    17   173   174    1
    18   173   170    1
    19   185   184    1
    20   185   186    1
    21   174   176   ar
    22   174   175   ar
    23   176   178   ar
    24    33    32    1
    25    33    34    1
    26   170   171    1
    27   170   169    1
    28   184   183    1
    29    35    34    2
    30   175   177   ar
    31   186   187    1
    32   165   166    1
    33   165   164    1
    34   178   177   ar
    35   167   166    2
    36   171   172    2
    37    32    30   am
    38    34    37   am
    39   166   168   am
    40   161   164    1
    41   161   160    1
    42   161   162    1
    43   179   180    1
    44   183   180    1
    45    31    30    2
    46    30    29    1
    47   162   163    2
    48   150   148   ar
    49   180   181    1
    50    37    38    1
    51    29    28    1
    52    28    25   am
    53   149   148   ar
    54    27    24    1
    55   148   147    1
    56    38    39    1
    57    38    41    1
    58    24    25    1
    59    24    23    1
    60    25    26    2
    61   146   145    2
    62   181   188   am
    63   181   182    2
    64    39    40    2
    65   188   189    1
    66   195   193   am
    67   145   144    1
    68   147   144    1
    69    19    18    2
    70    41    42    1
    71   193   194    2
    72   193   192    1
    73    23    18   am
    74   192   189    1
    75   144   143    1
    76   221   219   ar
    77   189   190    1
    78    42    43    1
    79    18    17    1
    80    54    53    1
    81    44    43    2
    82    43    45   am
    83   190   191    2
    84    16    17    1
    85   219   220   ar
    86   219   218    1
    87    46    47    1
    88    17    20    1
    89    53    52    1
    90    52    51    1
    91   217   216    2
    92   213   212    1
    93   218   215    1
    94    49    48    2
    95    20    21    1
    96    20    22    1
    97    47    50    1
    98    47    48    1
    99    51    50    1
   100   201   200    1
   101   210   212   ar
   102   210   208   ar
   103   196   197    1
   104    71    70    1
   105   212   211   ar
   106   197   200    1
   107   197   198    1
   108   216   215    1
   109    70    69    1
   110   215   214    1
   111   137   136    2
   112    15    13    1
   113    13    14    1
   114    13    10    1
   115   205   204    2
   116   208   207   ar
   117     9    10    1
   118    12    11    2
   119   198   199    2
   120   136   135    1
   121   211   209   ar
   122    79    78   ar
   123    10    11    1
   124   214   204   am
   125   204   203    1
   126    69    68    1
   127    67    64    1
   128    67    68    1
   129    65    64    1
   130    65    66    2
   131    64    63    1
   132   207   209   ar
   133   207   206    1
   134    78    80   ar
   135    78    77    1
   136   135   134    1
   137   135   138    1
   138   142   140   am
   139    76    77    1
   140    76    73    1
   141   139   138    1
   142   139   140    1
   143    72    73    1
   144    61    59    1
   145   203   202    1
   146   203   206    1
   147    73    74    1
   148   140   141    2
   149    62    60    1
   150    60    59    1
   151   114   112    1
   152    59    56    1
   153   113   112    1
   154   133   131   ar
   155    74    75    2
   156   112   111    2
   157   125   123   ar
   158   125   124   ar
   159    56    57    1
   160    56    55    1
   161    57    58    2
   162   123   121   ar
   163   131   130    1
   164   131   132   ar
   165    94    92    1
   166   124   122   ar
   167   111   110    1
   168   130   127    1
   169   121   120   ar
   170    92    93    1
   171    92    89    1
   172   110   109    1
   173   122   120   ar
   174   109   108    1
   175    87    86    1
   176    87    81    1
   177    86    85    1
   178   120   119    1
   179   127   126    1
   180   127   128    1
   181    88    89    1
   182    89    90    1
   183   126   117   am
   184    91    90    2
   185   108   105    1
   186   129   128    2
   187   105   106    1
   188   105   104    1
   189    90    95   am
   190   115   116    1
   191   115   106   am
   192    85    82    1
   193   117   118    2
   194   117   116    1
   195    81    82    1
   196   119   116    1
   197    98    97    2
   198   106   107    2
   199   104    97   am
   200    97    96    1
   201    82    83    1
   202    95    96    1
   203    84    83    2
   204    96    99    1
   205    99   100    1
   206   100   101    1
   207   101   103   ar
   208   101   102   ar
