@<TRIPOS>MOLECULE
tmp/3dodA00.pdb
 86 81 0 0 0
SMALL
GASTEIGER

@<TRIPOS>ATOM
      1  N         33.5660   -4.8700   31.7620 N.3    15  PHE15      -0.1241
      2  CA        33.0290   -5.3790   30.4940 C.3    15  PHE15       0.1605
      3  C         33.9320   -5.1260   29.2800 C.2    15  PHE15       0.2264
      4  O         33.4410   -4.8770   28.1840 O.2    15  PHE15      -0.2867
      5  CB        31.6430   -4.7770   30.1920 C.3    15  PHE15       0.0534
      6  CG        30.6240   -4.9990   31.2760 C.ar   15  PHE15      -0.0203
      7  CD1       30.0490   -6.2580   31.4690 C.ar   15  PHE15      -0.0042
      8  CD2       30.2190   -3.9430   32.0940 C.ar   15  PHE15      -0.0042
      9  CE1       29.0950   -6.4640   32.4650 C.ar   15  PHE15      -0.0003
     10  CE2       29.2600   -4.1460   33.0940 C.ar   15  PHE15      -0.0003
     11  CZ        28.7040   -5.4110   33.2750 C.ar   15  PHE15      -0.0000
     12  N         23.9200    5.4390   29.8030 N.3    52  TRP52      -0.1241
     13  CA        22.4820    5.4870   30.1100 C.3    52  TRP52       0.1605
     14  C         22.1240    6.1330   31.4480 C.2    52  TRP52       0.2264
     15  O         21.0500    5.8780   32.0000 O.2    52  TRP52      -0.2867
     16  CB        21.8450    4.0910   30.0230 C.3    52  TRP52       0.0550
     17  CG        22.3890    3.2020   28.9370 C.ar   52  TRP52       0.0003
     18  CD1       23.0710    3.5880   27.8180 C.ar   52  TRP52       0.0946
     19  CD2       22.2580    1.7780   28.8550 C.ar   52  TRP52       0.0152
     20  NE1       23.3730    2.4930   27.0470 N.ar   52  TRP52      -0.2442
     21  CE2       22.8900    1.3680   27.6640 C.ar   52  TRP52       0.0810
     22  CE3       21.6600    0.8110   29.6710 C.ar   52  TRP52       0.0012
     23  CZ2       22.9590    0.0310   27.2770 C.ar   52  TRP52       0.0191
     24  CZ3       21.7170   -0.5200   29.2790 C.ar   52  TRP52       0.0001
     25  CH2       22.3640   -0.8960   28.0930 C.ar   52  TRP52       0.0015
     26  N         24.1620    0.6510   43.6710 N.3   110  SER110     -0.1202
     27  CA        24.1530    0.3880   42.2370 C.3   110  SER110      0.2020
     28  C         22.8760   -0.3210   41.8200 C.2   110  SER110      0.2619
     29  O         22.1730   -0.9100   42.6500 O.2   110  SER110     -0.2717
     30  CB        25.3370   -0.4850   41.8420 C.3   110  SER110      0.2103
     31  OG        25.1560   -1.7890   42.3650 O.3   110  SER110     -0.2182
     32  N         22.5840   -0.2630   40.5250 N.am  111  GLY111     -0.1942
     33  CA        21.4070   -0.9350   39.9800 C.3   111  GLY111      0.2014
     34  C         21.4540   -2.4240   40.2810 C.2   111  GLY111      0.2638
     35  O         20.4340   -3.0380   40.5820 O.2   111  GLY111     -0.2714
     36  N         22.6400   -3.0090   40.1960 N.am  112  ALA112     -0.1977
     37  CA        22.7900   -4.4440   40.4790 C.3   112  ALA112      0.1597
     38  C         22.4680   -4.7450   41.9430 C.2   112  ALA112      0.2287
     39  O         21.7890   -5.7380   42.2370 O.2   112  ALA112     -0.2864
     40  CB        24.1960   -4.9300   40.1360 C.3   112  ALA112      0.0319
     41  N         18.6900   -4.6760   42.4350 N.3   115  MET115     -0.1245
     42  CA        18.0060   -5.8610   41.9060 C.3   115  MET115      0.1570
     43  C         18.2580   -7.0440   42.8380 C.2   115  MET115      0.2261
     44  O         17.3700   -7.8460   43.0780 O.2   115  MET115     -0.2867
     45  CB        18.4750   -6.2060   40.4870 C.3   115  MET115      0.0387
     46  CG        17.8570   -5.3000   39.3750 C.3   115  MET115      0.0595
     47  SD        16.0380   -5.3870   39.3180 S.3   115  MET115     -0.1393
     48  CE        15.7820   -7.0020   38.5800 C.3   115  MET115      0.0692
     49  N         12.7260   -6.3360   32.8900 N.3   186  GLU186     -0.1245
     50  CA        13.0420   -4.9430   32.6100 C.3   186  GLU186      0.1567
     51  C         11.7650   -4.2740   32.1620 C.2   186  GLU186      0.2260
     52  O         10.9160   -4.9080   31.5480 O.2   186  GLU186     -0.2867
     53  CB        14.0930   -4.8210   31.5180 C.3   186  GLU186      0.0388
     54  CG        15.4470   -5.4110   31.8720 C.3   186  GLU186      0.1160
     55  CD        16.4000   -5.3450   30.7040 C.2   186  GLU186      0.3649
     56  OE1       16.5290   -6.3600   29.9850 O.co2 186  GLU186     -0.2457
     57  OE2       16.9790   -4.2660   30.4770 O.co2 186  GLU186     -0.2457
     58  N         12.5960   -3.9500   36.6710 N.3   220  ASP220     -0.1239
     59  CA        13.8960   -3.3020   36.6100 C.3   220  ASP220      0.1674
     60  C         13.7730   -2.0180   35.7840 C.2   220  ASP220      0.2266
     61  O         13.6270   -2.0670   34.5510 O.2   220  ASP220     -0.2867
     62  CB        14.9150   -4.2450   35.9700 C.3   220  ASP220      0.1410
     63  CG        16.3220   -3.7330   36.0630 C.2   220  ASP220      0.3668
     64  OD1       16.5270   -2.5040   36.2460 O.co2 220  ASP220     -0.2456
     65  OD2       17.2310   -4.5630   35.9260 O.co2 220  ASP220     -0.2456
     66  N         16.2080    0.3730   36.0660 N.3   222  VAL222     -0.1231
     67  CA        17.5330    0.9880   36.1820 C.3   222  VAL222      0.1692
     68  C         17.9210    1.7580   34.8990 C.2   222  VAL222      0.2591
     69  O         18.4830    2.8670   34.9610 O.2   222  VAL222     -0.2718
     70  CB        18.6230   -0.0330   36.6270 C.3   222  VAL222      0.0266
     71  CG1       19.9860    0.6330   36.6610 C.3   222  VAL222      0.0020
     72  CG2       18.2940   -0.5950   38.0250 C.3   222  VAL222      0.0020
     73  N         17.6030    1.1950   33.7360 N.am  223  ALA223     -0.1980
     74  CA        17.8820    1.9110   32.4910 C.3   223  ALA223      0.1597
     75  C         16.7330    2.8470   32.0950 C.2   223  ALA223      0.2287
     76  O         16.9680    3.9700   31.6630 O.2   223  ALA223     -0.2864
     77  CB        18.2160    0.9500   31.3550 C.3   223  ALA223      0.0319
     78  N         21.2510    4.6020   38.0080 N.3   249  LYS249     -0.1245
     79  CA        21.7710    5.4180   36.9020 C.3   249  LYS249      0.1561
     80  C         21.3160    6.8810   36.9240 C.2   249  LYS249      0.2260
     81  O         21.9310    7.6970   37.6170 O.2   249  LYS249     -0.2867
     82  CB        21.4650    4.7580   35.5480 C.3   249  LYS249      0.0271
     83  CG        22.2490    3.4580   35.2760 C.3   249  LYS249      0.0035
     84  CD        22.0480    2.9990   33.8190 C.3   249  LYS249      0.0206
     85  CE        23.0070    1.8730   33.4170 C.3   249  LYS249      0.1093
     86  NZ        22.4860    0.5230   33.7450 N.3   249  LYS249     -0.1314
@<TRIPOS>BOND
     1    20    21   ar
     2    20    18   ar
     3    23    21   ar
     4    23    25   ar
     5    21    19   ar
     6    18    17   ar
     7    25    24   ar
     8     4     3    2
     9    19    17   ar
    10    19    22   ar
    11    17    16    1
    12    24    22   ar
    13     3     2    1
    14    12    13    1
    15    56    55   ar
    16    16    13    1
    17    13    14    1
    18     5     2    1
    19     5     6    1
    20    57    55   ar
    21     2     1    1
    22    55    54    1
    23     6     7   ar
    24     6     8   ar
    25    77    74    1
    26    14    15    2
    27     7     9   ar
    28    53    54    1
    29    53    50    1
    30    52    51    2
    31    76    75    2
    32     8    10   ar
    33    75    74    1
    34    51    50    1
    35     9    11   ar
    36    74    73    1
    37    50    49    1
    38    10    11   ar
    39    85    86    1
    40    85    84    1
    41    73    68   am
    42    84    83    1
    43    61    60    2
    44    68    69    2
    45    68    67    1
    46    83    82    1
    47    82    79    1
    48    60    59    1
    49    65    63   ar
    50    62    63    1
    51    62    59    1
    52    63    64   ar
    53    66    67    1
    54    67    70    1
    55    59    58    1
    56    70    71    1
    57    70    72    1
    58    79    80    1
    59    79    78    1
    60    80    81    2
    61    48    47    1
    62    47    46    1
    63    46    45    1
    64    33    34    1
    65    33    32    1
    66    40    37    1
    67    36    34   am
    68    36    37    1
    69    34    35    2
    70    37    38    1
    71    45    42    1
    72    32    28   am
    73    28    27    1
    74    28    29    2
    75    30    27    1
    76    30    31    1
    77    42    41    1
    78    42    43    1
    79    38    39    2
    80    27    26    1
    81    43    44    2
