@<TRIPOS>MOLECULE
tmp/3dofA00.pdb
 154 148 0 0 0
SMALL
GASTEIGER

@<TRIPOS>ATOM
      1  N         10.1530    9.5940   10.5530 N.3    23  LEU23      -0.1231
      2  CA         8.7300    9.6750   10.2210 C.3    23  LEU23       0.1693
      3  C          8.1370    8.3110    9.8710 C.2    23  LEU23       0.2592
      4  O          8.8540    7.4040    9.4440 O.2    23  LEU23      -0.2718
      5  CB         8.5060   10.6640    9.0700 C.3    23  LEU23       0.0284
      6  CG         8.1780   12.1330    9.3710 C.3    23  LEU23       0.0019
      7  CD1        9.2440   12.8290   10.2180 C.3    23  LEU23       0.0001
      8  CD2        7.9550   12.8910    8.0670 C.3    23  LEU23       0.0001
      9  N          6.8260    8.1770   10.0620 N.am   24  ASP24      -0.1960
     10  CA         6.1110    6.9370    9.7550 C.3    24  ASP24       0.1840
     11  C          6.3500    6.4790    8.3210 C.2    24  ASP24       0.2622
     12  O          6.6560    7.2910    7.4410 O.2    24  ASP24      -0.2715
     13  CB         4.6070    7.1000   10.0010 C.3    24  ASP24       0.1450
     14  CG         4.0270    8.3150    9.3000 C.2    24  ASP24       0.3671
     15  OD1        4.2220    9.4390    9.8070 O.co2  24  ASP24      -0.2456
     16  OD2        3.3680    8.1460    8.2510 O.co2  24  ASP24      -0.2456
     17  N          6.2190    5.1720    8.1020 N.am   25  ASN25      -0.1958
     18  CA         6.3360    4.5810    6.7710 C.3    25  ASN25       0.1819
     19  C          7.7760    4.4920    6.2560 C.2    25  ASN25       0.2621
     20  O          8.0610    3.7180    5.3380 O.2    25  ASN25      -0.2715
     21  CB         5.4470    5.3360    5.7700 C.3    25  ASN25       0.1195
     22  CG         5.2600    4.5880    4.4690 C.2    25  ASN25       0.2630
     23  OD1        4.7970    3.4460    4.4530 O.2    25  ASN25      -0.2716
     24  ND2        5.6060    5.2360    3.3630 N.am   25  ASN25      -0.0877
     25  N          8.6750    5.2760    6.8530 N.am   26  ALA26      -0.1963
     26  CA        10.0740    5.3570    6.4150 C.3    26  ALA26       0.1728
     27  C         10.7290    3.9940    6.1730 C.2    26  ALA26       0.2617
     28  O         11.4550    3.8190    5.1930 O.2    26  ALA26      -0.2715
     29  CB        10.8980    6.1780    7.3970 C.3    26  ALA26       0.0334
     30  N         10.4690    3.0370    7.0620 N.am   27  GLY27      -0.1940
     31  CA        10.9900    1.6780    6.9120 C.3    27  GLY27       0.2014
     32  C         11.8570    1.2160    8.0680 C.2    27  GLY27       0.2639
     33  O         12.6900    0.3220    7.9060 O.2    27  GLY27      -0.2714
     34  N         11.6540    1.8240    9.2340 N.am   28  LYS28      -0.1963
     35  CA        12.4210    1.5090   10.4380 C.3    28  LYS28       0.1728
     36  C         12.2830    0.0460   10.8570 C.2    28  LYS28       0.2617
     37  O         13.2830   -0.6680   10.9680 O.2    28  LYS28      -0.2715
     38  CB        11.9970    2.4280   11.5830 C.3    28  LYS28       0.0311
     39  CG        12.3950    3.8820   11.3880 C.3    28  LYS28       0.0038
     40  CD        11.2540    4.8270   11.7110 C.3    28  LYS28       0.0206
     41  CE        10.8340    4.7280   13.1620 C.3    28  LYS28       0.1093
     42  NZ         9.5880    5.4920   13.4050 N.3    28  LYS28      -0.1314
     43  N         11.0440   -0.3930   11.0810 N.am   29  THR29      -0.1937
     44  CA        10.7600   -1.7770   11.4680 C.3    29  THR29       0.2028
     45  C         11.1650   -2.7480   10.3570 C.2    29  THR29       0.2642
     46  O         11.5380   -3.8900   10.6310 O.2    29  THR29      -0.2714
     47  CB         9.2680   -1.9850   11.8240 C.3    29  THR29       0.1808
     48  OG1        8.7820   -0.8580   12.5660 O.3    29  THR29      -0.2208
     49  CG2        9.0740   -3.2520   12.6490 C.3    29  THR29       0.0379
     50  N         11.0980   -2.2810    9.1100 N.am   30  THR30      -0.1950
     51  CA        11.5380   -3.0660    7.9570 C.3    30  THR30       0.1897
     52  C         13.0380   -3.3580    8.0370 C.2    30  THR30       0.2313
     53  O         13.4720   -4.4700    7.7310 O.2    30  THR30      -0.2863
     54  CB        11.1900   -2.3720    6.6160 C.3    30  THR30       0.1794
     55  OG1        9.8170   -1.9630    6.6270 O.3    30  THR30      -0.2208
     56  CG2       11.4140   -3.3160    5.4380 C.3    30  THR30       0.0378
     57  N          9.8160   -9.6410    6.3560 N.3    40  ILE40      -0.1245
     58  CA         9.3070   -8.2690    6.2170 C.3    40  ILE40       0.1561
     59  C          7.8600   -8.2400    5.7180 C.2    40  ILE40       0.2260
     60  O          7.1760   -7.2170    5.8080 O.2    40  ILE40      -0.2867
     61  CB        10.2020   -7.3870    5.2980 C.3    40  ILE40       0.0252
     62  CG1       10.3360   -8.0000    3.8950 C.3    40  ILE40       0.0019
     63  CG2       11.5650   -7.1600    5.9450 C.3    40  ILE40       0.0019
     64  CD1       10.7570   -7.0120    2.8160 C.3    40  ILE40       0.0001
     65  N          4.8810   -6.8760    8.3580 N.3    43  ILE43      -0.1231
     66  CA         5.0510   -5.6430    9.1230 C.3    43  ILE43       0.1692
     67  C          3.8540   -4.7080    8.9810 C.2    43  ILE43       0.2593
     68  O          3.5310   -4.2430    7.8840 O.2    43  ILE43      -0.2718
     69  CB         6.3580   -4.9010    8.7370 C.3    43  ILE43       0.0266
     70  CG1        7.5760   -5.7810    9.0350 C.3    43  ILE43       0.0019
     71  CG2        6.4650   -3.5580    9.4720 C.3    43  ILE43       0.0020
     72  CD1        8.8520   -5.3230    8.3640 C.3    43  ILE43       0.0001
     73  N          3.1970   -4.4600   10.1090 N.am   44  SER44      -0.1939
     74  CA         2.1530   -3.4530   10.2160 C.3    44  SER44       0.2040
     75  C          2.7730   -2.2260   10.8860 C.2    44  SER44       0.2485
     76  O          3.6600   -2.3800   11.7310 O.2    44  SER44      -0.2729
     77  CB         0.9930   -3.9940   11.0560 C.3    44  SER44       0.2129
     78  OG        -0.1290   -3.1310   11.0170 O.3    44  SER44      -0.2179
     79  N          2.3330   -1.0060   10.5040 N.am   45  PRO45      -0.2715
     80  CA         2.8440    0.2170   11.1380 C.3    45  PRO45       0.1536
     81  C          2.8560    0.1260   12.6640 C.2    45  PRO45       0.2599
     82  O          1.8360   -0.2090   13.2740 O.2    45  PRO45      -0.2715
     83  CB         1.8650    1.3070   10.6680 C.3    45  PRO45       0.0310
     84  CG         0.7680    0.5920    9.9260 C.3    45  PRO45       0.0237
     85  CD         1.3560   -0.6910    9.4490 C.3    45  PRO45       0.0939
     86  N          4.0110    0.4080   13.2610 N.am   46  THR46      -0.1951
     87  CA         4.1860    0.2590   14.7030 C.3    46  THR46       0.1897
     88  C          3.5880    1.4170   15.4940 C.2    46  THR46       0.2313
     89  O          3.8410    2.5880   15.1980 O.2    46  THR46      -0.2863
     90  CB         5.6690    0.0130   15.0970 C.3    46  THR46       0.1794
     91  OG1        6.5380    0.8230   14.2730 O.3    46  THR46      -0.2208
     92  CG2        6.0320   -1.4560   14.8670 C.3    46  THR46       0.0378
     93  N          7.5260    3.7540   17.1310 N.3    67  GLY67      -0.1210
     94  CA         6.5280    4.1810   16.1440 C.3    67  GLY67       0.1956
     95  C          6.6420    5.6400   15.7420 C.2    67  GLY67       0.2612
     96  O          6.7150    6.5240   16.5990 O.2    67  GLY67      -0.2717
     97  N          6.6490    5.8860   14.4340 N.am   68  GLY68      -0.1942
     98  CA         6.9200    7.2160   13.8880 C.3    68  GLY68       0.2014
     99  C          5.7140    8.0800   13.5790 C.2    68  GLY68       0.2638
    100  O          5.8630    9.1990   13.0780 O.2    68  GLY68      -0.2714
    101  N          4.5230    7.5640   13.8750 N.am   69  GLN69      -0.1977
    102  CA         3.2820    8.2970   13.6450 C.3    69  GLN69       0.1601
    103  C          3.2820    9.6410   14.3760 C.2    69  GLN69       0.2287
    104  O          3.7430    9.7370   15.5160 O.2    69  GLN69      -0.2864
    105  CB         2.0850    7.4510   14.0720 C.3    69  GLN69       0.0394
    106  CG         0.7410    8.0140   13.6500 C.3    69  GLN69       0.0908
    107  CD        -0.3940    7.0580   13.9300 C.2    69  GLN69       0.2608
    108  OE1       -0.2960    5.8600   13.6600 O.2    69  GLN69      -0.2717
    109  NE2       -1.4880    7.5820   14.4690 N.am   69  GLN69      -0.0878
    110  N         16.3590    5.5060    2.8870 N.3   124  ASN124     -0.1225
    111  CA        15.7360    4.2530    2.4680 C.3   124  ASN124      0.1785
    112  C         14.8380    4.3770    1.2370 C.2   124  ASN124      0.2597
    113  O         14.6420    5.4730    0.7070 O.2   124  ASN124     -0.2718
    114  CB        14.9580    3.6320    3.6340 C.3   124  ASN124      0.1169
    115  CG        14.6510    2.1600    3.4180 C.2   124  ASN124      0.2627
    116  OD1       13.5650    1.6870    3.7510 O.2   124  ASN124     -0.2716
    117  ND2       15.6070    1.4310    2.8510 N.am  124  ASN124     -0.0877
    118  N         14.3070    3.2350    0.7970 N.am  125  LYS125     -0.1980
    119  CA        13.4240    3.1330   -0.3670 C.3   125  LYS125      0.1596
    120  C         14.0760    3.7040   -1.6310 C.2   125  LYS125      0.2287
    121  O         13.4380    4.3980   -2.4260 O.2   125  LYS125     -0.2864
    122  CB        12.0430    3.7370   -0.0670 C.3   125  LYS125      0.0298
    123  CG        11.3870    3.1130    1.1680 C.3   125  LYS125      0.0038
    124  CD         9.9780    3.6120    1.4230 C.3   125  LYS125      0.0206
    125  CE         8.9490    2.9630    0.5120 C.3   125  LYS125      0.1093
    126  NZ         7.5580    3.3730    0.8590 N.3   125  LYS125     -0.1314
    127  N         15.2280    1.8550   -3.9970 N.3   127  ASP127     -0.1225
    128  CA        14.7550    1.0130   -5.0920 C.3   127  ASP127      0.1805
    129  C         13.6340    1.6810   -5.8980 C.2   127  ASP127      0.2597
    130  O         13.4210    1.3430   -7.0660 O.2   127  ASP127     -0.2718
    131  CB        14.2930   -0.3500   -4.5570 C.3   127  ASP127      0.1424
    132  CG        13.4080   -0.2310   -3.3220 C.2   127  ASP127      0.3668
    133  OD1       13.9000    0.2230   -2.2650 O.co2 127  ASP127     -0.2456
    134  OD2       12.2200   -0.6070   -3.4070 O.co2 127  ASP127     -0.2456
    135  N         12.9340    2.6290   -5.2740 N.am  128  LEU128     -0.1979
    136  CA        11.8010    3.3140   -5.9020 C.3   128  LEU128      0.1596
    137  C         12.2280    4.3750   -6.9170 C.2   128  LEU128      0.2287
    138  O         13.1670    5.1300   -6.6630 O.2   128  LEU128     -0.2864
    139  CB        10.8840    3.9430   -4.8440 C.3   128  LEU128      0.0297
    140  CG        10.0600    3.0280   -3.9310 C.3   128  LEU128      0.0022
    141  CD1        9.1350    3.8590   -3.0610 C.3   128  LEU128      0.0001
    142  CD2        9.2570    1.9940   -4.7170 C.3   128  LEU128      0.0001
    143  N         15.6830   -1.3010    2.0100 N.3   158  ALA158     -0.1231
    144  CA        15.4270   -2.1920    3.1440 C.3   158  ALA158      0.1694
    145  C         14.7800   -3.5140    2.7350 C.2   158  ALA158      0.2591
    146  O         14.8550   -4.4970    3.4740 O.2   158  ALA158     -0.2718
    147  CB        14.5840   -1.4890    4.1990 C.3   158  ALA158      0.0304
    148  N         14.1440   -3.5270    1.5640 N.am  159  VAL159     -0.1980
    149  CA        13.5480   -4.7440    1.0040 C.3   159  VAL159      0.1595
    150  C         14.6320   -5.7310    0.5640 C.2   159  VAL159      0.2287
    151  O         14.6030   -6.9040    0.9440 O.2   159  VAL159     -0.2864
    152  CB        12.5940   -4.4270   -0.1830 C.3   159  VAL159      0.0276
    153  CG1       12.1700   -5.7040   -0.9100 C.3   159  VAL159      0.0022
    154  CG2       11.3670   -3.6720    0.3040 C.3   159  VAL159      0.0022
@<TRIPOS>BOND
     1   130   129    2
     2   137   138    2
     3   137   136    1
     4   136   135    1
     5   136   139    1
     6   129   135   am
     7   129   128    1
     8   128   131    1
     9   128   127    1
    10   139   140    1
    11   142   140    1
    12   131   132    1
    13   140   141    1
    14   134   132   ar
    15   132   133   ar
    16   121   120    2
    17   120   119    1
    18   153   152    1
    19   119   122    1
    20   119   118    1
    21   152   154    1
    22   152   149    1
    23   122   123    1
    24   125   126    1
    25   125   124    1
    26   150   151    2
    27   150   149    1
    28   113   112    2
    29   118   112   am
    30   149   148    1
    31   123   124    1
    32   112   111    1
    33   148   145   am
    34   143   144    1
    35   111   110    1
    36   111   114    1
    37   145   144    1
    38   145   146    2
    39    64    62    1
    40   117   115   am
    41   144   147    1
    42    24    22   am
    43   115   114    1
    44   115   116    2
    45    62    61    1
    46    23    22    2
    47    22    21    1
    48    28    27    2
    49    61    63    1
    50    61    58    1
    51    20    19    2
    52    56    54    1
    53    59    60    2
    54    59    58    1
    55    21    18    1
    56    27    26    1
    57    27    30   am
    58    58    57    1
    59    19    18    1
    60    19    25   am
    61    26    25    1
    62    26    29    1
    63    54    55    1
    64    54    51    1
    65    18    17    1
    66    31    30    1
    67    31    32    1
    68    12    11    2
    69    53    52    2
    70    68    67    2
    71    33    32    2
    72    51    52    1
    73    51    50    1
    74     8     6    1
    75    32    34   am
    76    17    11   am
    77    16    14   ar
    78    11    10    1
    79    65    66    1
    80    72    70    1
    81    69    70    1
    82    69    66    1
    83    69    71    1
    84    67    66    1
    85    67    73   am
    86     5     6    1
    87     5     2    1
    88    50    45   am
    89    34    35    1
    90    14    15   ar
    91    14    13    1
    92     6     7    1
    93     4     3    2
    94    85    84    1
    95    85    79    1
    96    10    13    1
    97    10     9    1
    98     3     9   am
    99     3     2    1
   100    84    83    1
   101    73    74    1
   102    74    75    1
   103    74    77    1
   104     2     1    1
   105    45    46    2
   106    45    44    1
   107    35    36    1
   108    35    38    1
   109    79    75   am
   110    79    80    1
   111    83    80    1
   112    36    37    2
   113    36    43   am
   114    75    76    2
   115    78    77    1
   116    43    44    1
   117    80    81    1
   118    39    38    1
   119    39    40    1
   120    44    47    1
   121    40    41    1
   122    47    48    1
   123    47    49    1
   124    81    86   am
   125    81    82    2
   126   100    99    2
   127    41    42    1
   128    86    87    1
   129    99   101   am
   130    99    98    1
   131   102   101    1
   132   102   105    1
   133   102   103    1
   134   106   107    1
   135   106   105    1
   136   108   107    2
   137    98    97    1
   138   107   109   am
   139    91    90    1
   140   103   104    2
   141    97    95   am
   142    87    90    1
   143    87    88    1
   144    92    90    1
   145    89    88    2
   146    95    94    1
   147    95    96    2
   148    94    93    1
