@<TRIPOS>MOLECULE
tmp/3dogC00.pdb
 184 177 0 0 0
SMALL
GASTEIGER

@<TRIPOS>ATOM
      1  N        -22.4190  -21.4370  -31.2550 N.3     9  GLU9       -0.1231
      2  CA       -23.1190  -22.0560  -32.3670 C.3     9  GLU9        0.1699
      3  C        -24.0190  -21.0200  -33.0310 C.2     9  GLU9        0.2592
      4  O        -24.3040  -19.9720  -32.4450 O.2     9  GLU9       -0.2718
      5  CB       -23.9300  -23.2770  -31.8920 C.3     9  GLU9        0.0402
      6  CG       -25.1300  -22.9570  -30.9880 C.3     9  GLU9        0.1161
      7  CD       -25.7540  -24.1910  -30.3340 C.2     9  GLU9        0.3649
      8  OE1      -24.9980  -25.0340  -29.8020 O.co2   9  GLU9       -0.2457
      9  OE2      -27.0040  -24.3070  -30.3270 O.co2   9  GLU9       -0.2457
     10  N        -24.4460  -21.3130  -34.2580 N.am   10  LYS10      -0.1966
     11  CA       -25.4150  -20.4920  -34.9660 C.3    10  LYS10       0.1728
     12  C        -26.8020  -20.9250  -34.5330 C.2    10  LYS10       0.2616
     13  O        -27.1090  -22.1120  -34.5300 O.2    10  LYS10      -0.2715
     14  CB       -25.2640  -20.6730  -36.4770 C.3    10  LYS10       0.0311
     15  CG       -25.9390  -19.5910  -37.3100 C.3    10  LYS10       0.0038
     16  CD       -26.2750  -20.0940  -38.6920 C.3    10  LYS10       0.0206
     17  CE       -26.8670  -18.9780  -39.5350 C.3    10  LYS10       0.1093
     18  NZ       -27.7300  -19.4900  -40.6410 N.3    10  LYS10      -0.1314
     19  N        -27.6360  -19.9680  -34.1530 N.am   11  ILE11      -0.1963
     20  CA       -28.9870  -20.2870  -33.7100 C.3    11  ILE11       0.1727
     21  C        -29.9450  -20.2560  -34.8990 C.2    11  ILE11       0.2617
     22  O        -30.8560  -21.0840  -34.9990 O.2    11  ILE11      -0.2715
     23  CB       -29.4430  -19.3540  -32.5650 C.3    11  ILE11       0.0290
     24  CG1      -28.8160  -19.8040  -31.2410 C.3    11  ILE11       0.0022
     25  CG2      -30.9560  -19.3210  -32.4510 C.3    11  ILE11       0.0023
     26  CD1      -29.0210  -18.8360  -30.0730 C.3    11  ILE11       0.0001
     27  N        -29.7220  -19.3140  -35.8090 N.am   12  GLY12      -0.1940
     28  CA       -30.5400  -19.2080  -37.0070 C.3    12  GLY12       0.2014
     29  C        -30.7520  -17.7840  -37.4680 C.2    12  GLY12       0.2639
     30  O        -29.9750  -16.8830  -37.1340 O.2    12  GLY12      -0.2714
     31  N        -31.8170  -17.5840  -38.2380 N.am   13  GLU13      -0.1963
     32  CA       -32.0890  -16.2960  -38.8720 C.3    13  GLU13       0.1733
     33  C        -33.5390  -15.8540  -38.6930 C.2    13  GLU13       0.2616
     34  O        -34.4740  -16.5150  -39.1640 O.2    13  GLU13      -0.2715
     35  CB       -31.7290  -16.3530  -40.3550 C.3    13  GLU13       0.0429
     36  CG       -30.2510  -16.5610  -40.6120 C.3    13  GLU13       0.1163
     37  CD       -29.8790  -16.4510  -42.0790 C.2    13  GLU13       0.3649
     38  OE1      -30.6590  -15.8610  -42.8640 O.co2  13  GLU13      -0.2457
     39  OE2      -28.7930  -16.9530  -42.4460 O.co2  13  GLU13      -0.2457
     40  N        -33.7170  -14.7270  -38.0130 N.am   14  GLY14      -0.1955
     41  CA       -35.0430  -14.1750  -37.7750 C.3    14  GLY14       0.1869
     42  C        -35.5340  -13.3570  -38.9450 C.2    14  GLY14       0.2309
     43  O        -35.1090  -13.5690  -40.0820 O.2    14  GLY14      -0.2863
     44  N        -28.5690  -14.7950  -35.7200 N.3    19  VAL19      -0.1245
     45  CA       -28.5020  -15.0310  -34.2760 C.3    19  VAL19       0.1561
     46  C        -27.5150  -16.1310  -33.8840 C.2    19  VAL19       0.2260
     47  O        -27.5050  -17.2190  -34.4770 O.2    19  VAL19      -0.2867
     48  CB       -29.8900  -15.3390  -33.6700 C.3    19  VAL19       0.0252
     49  CG1      -29.7850  -15.5330  -32.1560 C.3    19  VAL19       0.0019
     50  CG2      -30.8840  -14.2230  -33.9920 C.3    19  VAL19       0.0019
     51  N        -27.7570  -14.5530  -26.5160 N.3    32  ALA32      -0.1245
     52  CA       -27.9640  -14.7060  -27.9430 C.3    32  ALA32       0.1562
     53  C        -27.6770  -13.3630  -28.6000 C.2    32  ALA32       0.2260
     54  O        -28.2010  -12.3300  -28.1780 O.2    32  ALA32      -0.2867
     55  CB       -29.3710  -15.1700  -28.2390 C.3    32  ALA32       0.0290
     56  N        -27.9700  -11.0660  -31.8290 N.3    34  LYS34      -0.1245
     57  CA       -28.5550  -10.7830  -33.1320 C.3    34  LYS34       0.1561
     58  C        -27.6120   -9.8320  -33.8800 C.2    34  LYS34       0.2260
     59  O        -27.4930   -8.6580  -33.5270 O.2    34  LYS34      -0.2867
     60  CB       -29.9450  -10.1730  -32.9590 C.3    34  LYS34       0.0271
     61  CG       -30.8680  -10.3110  -34.1470 C.3    34  LYS34       0.0035
     62  CD       -32.3040  -10.0880  -33.7060 C.3    34  LYS34       0.0206
     63  CE       -33.2660  -10.2180  -34.8710 C.3    34  LYS34       0.1093
     64  NZ       -34.6970  -10.0960  -34.4620 N.3    34  LYS34      -0.1314
     65  N        -39.0410  -11.3100  -24.4350 N.3    65  VAL65      -0.1245
     66  CA       -37.5970  -11.5640  -24.4530 C.3    65  VAL65       0.1561
     67  C        -36.8230  -10.3030  -24.0800 C.2    65  VAL65       0.2260
     68  O        -37.1870   -9.1930  -24.4810 O.2    65  VAL65      -0.2867
     69  CB       -37.1140  -12.1500  -25.8170 C.3    65  VAL65       0.0252
     70  CG1      -37.1960  -11.1100  -26.9370 C.3    65  VAL65       0.0019
     71  CG2      -35.6980  -12.7210  -25.6970 C.3    65  VAL65       0.0019
     72  N        -29.0560  -10.3450  -26.4070 N.3    81  PHE81      -0.1227
     73  CA       -30.3150  -10.8430  -25.8310 C.3    81  PHE81       0.1736
     74  C        -30.0660  -11.8780  -24.7400 C.2    81  PHE81       0.2595
     75  O        -29.0050  -12.5150  -24.7080 O.2    81  PHE81      -0.2718
     76  CB       -31.1740  -11.5120  -26.9110 C.3    81  PHE81       0.0547
     77  CG       -31.9340  -10.5560  -27.7790 C.ar   81  PHE81      -0.0202
     78  CD1      -31.4580  -10.2100  -29.0410 C.ar   81  PHE81      -0.0042
     79  CD2      -33.1410  -10.0140  -27.3490 C.ar   81  PHE81      -0.0042
     80  CE1      -32.1720   -9.3300  -29.8600 C.ar   81  PHE81      -0.0003
     81  CE2      -33.8610   -9.1330  -28.1570 C.ar   81  PHE81      -0.0003
     82  CZ       -33.3760   -8.7890  -29.4130 C.ar   81  PHE81      -0.0000
     83  N        -31.0500  -12.0650  -23.8620 N.am   82  GLU82      -0.1965
     84  CA       -31.0190  -13.2100  -22.9730 C.3    82  GLU82       0.1733
     85  C        -31.2100  -14.4460  -23.8530 C.2    82  GLU82       0.2616
     86  O        -31.9870  -14.4110  -24.8150 O.2    82  GLU82      -0.2715
     87  CB       -32.1130  -13.1310  -21.9090 C.3    82  GLU82       0.0429
     88  CG       -33.5130  -13.4860  -22.4200 C.3    82  GLU82       0.1163
     89  CD       -34.5760  -13.4700  -21.3420 C.2    82  GLU82       0.3649
     90  OE1      -34.3840  -14.1020  -20.2900 O.co2  82  GLU82      -0.2457
     91  OE2      -35.6220  -12.8290  -21.5520 O.co2  82  GLU82      -0.2457
     92  N        -30.4840  -15.5140  -23.5350 N.am   83  PHE83      -0.1960
     93  CA       -30.6250  -16.7840  -24.2300 C.3    83  PHE83       0.1771
     94  C        -31.7800  -17.6020  -23.6580 C.2    83  PHE83       0.2619
     95  O        -31.9460  -17.6960  -22.4400 O.2    83  PHE83      -0.2715
     96  CB       -29.3210  -17.5830  -24.1450 C.3    83  PHE83       0.0574
     97  CG       -29.4140  -18.9740  -24.7200 C.ar   83  PHE83      -0.0200
     98  CD1      -29.3290  -19.1820  -26.0970 C.ar   83  PHE83      -0.0042
     99  CD2      -29.5710  -20.0760  -23.8860 C.ar   83  PHE83      -0.0042
    100  CE1      -29.4080  -20.4610  -26.6360 C.ar   83  PHE83      -0.0003
    101  CE2      -29.6530  -21.3650  -24.4170 C.ar   83  PHE83      -0.0003
    102  CZ       -29.5700  -21.5550  -25.7940 C.ar   83  PHE83      -0.0000
    103  N        -32.5820  -18.1800  -24.5480 N.am   84  LEU84      -0.1963
    104  CA       -33.5700  -19.1740  -24.1490 C.3    84  LEU84       0.1728
    105  C        -33.2900  -20.4730  -24.8780 C.2    84  LEU84       0.2616
    106  O        -32.8280  -20.4690  -26.0120 O.2    84  LEU84      -0.2715
    107  CB       -35.0040  -18.6850  -24.3570 C.3    84  LEU84       0.0311
    108  CG       -35.5110  -17.6790  -23.3130 C.3    84  LEU84       0.0022
    109  CD1      -35.2660  -16.2690  -23.7970 C.3    84  LEU84       0.0001
    110  CD2      -36.9860  -17.8710  -23.0200 C.3    84  LEU84       0.0001
    111  N        -33.5790  -21.5810  -24.2110 N.am   85  HIS85      -0.1959
    112  CA       -33.0300  -22.8880  -24.5770 C.3    85  HIS85       0.1787
    113  C        -33.6360  -23.5090  -25.8330 C.2    85  HIS85       0.2620
    114  O        -32.9220  -24.1690  -26.5950 O.2    85  HIS85      -0.2715
    115  CB       -33.0740  -23.8160  -23.3620 C.3    85  HIS85       0.0785
    116  CG       -32.5020  -23.1790  -22.1290 C.ar   85  HIS85       0.0821
    117  ND1      -33.1040  -22.1050  -21.5000 N.ar   85  HIS85      -0.2267
    118  CD2      -31.3620  -23.4300  -21.4390 C.ar   85  HIS85       0.1154
    119  CE1      -32.3690  -21.7360  -20.4660 C.ar   85  HIS85       0.1986
    120  NE2      -31.3070  -22.5240  -20.4060 N.ar   85  HIS85      -0.2212
    121  N        -34.9370  -23.2920  -26.0450 N.am   86  GLN86      -0.1963
    122  CA       -35.5420  -23.5190  -27.3630 C.3    86  GLN86       0.1733
    123  C        -36.8680  -22.7790  -27.6410 C.2    86  GLN86       0.2616
    124  O        -37.3890  -22.0550  -26.7820 O.2    86  GLN86      -0.2715
    125  CB       -35.6140  -25.0100  -27.7200 C.3    86  GLN86       0.0408
    126  CG       -36.7620  -25.7980  -27.1480 C.3    86  GLN86       0.0908
    127  CD       -36.8440  -27.1500  -27.8230 C.2    86  GLN86       0.2608
    128  OE1      -36.2300  -27.3620  -28.8750 O.2    86  GLN86      -0.2717
    129  NE2      -37.5890  -28.0780  -27.2250 N.am   86  GLN86      -0.0878
    130  N        -37.3800  -22.9700  -28.8610 N.am   87  ASP87      -0.1971
    131  CA       -38.6060  -22.3260  -29.3190 C.3    87  ASP87       0.1709
    132  C        -39.7820  -23.2970  -29.3210 C.2    87  ASP87       0.2293
    133  O        -39.5980  -24.5160  -29.3890 O.2    87  ASP87      -0.2864
    134  CB       -38.4140  -21.6950  -30.7100 C.3    87  ASP87       0.1436
    135  CG       -38.0590  -22.7170  -31.7890 C.2    87  ASP87       0.3671
    136  OD1      -38.8920  -23.5960  -32.1120 O.co2  87  ASP87      -0.2456
    137  OD2      -36.9400  -22.6240  -32.3380 O.co2  87  ASP87      -0.2456
    138  N        -39.8650  -26.2040  -32.1650 N.3    90  LYS90      -0.1245
    139  CA       -39.0430  -27.3850  -31.9150 C.3    90  LYS90       0.1561
    140  C        -39.5790  -28.2120  -30.7460 C.2    90  LYS90       0.2260
    141  O        -39.4540  -29.4430  -30.7440 O.2    90  LYS90      -0.2867
    142  CB       -37.5950  -26.9940  -31.6340 C.3    90  LYS90       0.0271
    143  CG       -36.7790  -26.5910  -32.8500 C.3    90  LYS90       0.0035
    144  CD       -35.4820  -25.9140  -32.3870 C.3    90  LYS90       0.0206
    145  CE       -34.5660  -25.5710  -33.5460 C.3    90  LYS90       0.1093
    146  NZ       -35.2360  -24.6610  -34.5180 N.3    90  LYS90      -0.1314
    147  N        -42.1640  -20.2300  -33.7960 N.3   132  GLN132     -0.1231
    148  CA       -40.7230  -19.9990  -33.9520 C.3   132  GLN132      0.1698
    149  C        -40.2600  -18.7540  -33.2050 C.2   132  GLN132      0.2592
    150  O        -39.0980  -18.6610  -32.8150 O.2   132  GLN132     -0.2718
    151  CB       -40.3350  -19.8720  -35.4290 C.3   132  GLN132      0.0381
    152  CG       -40.5180  -21.1340  -36.2530 C.3   132  GLN132      0.0905
    153  CD       -41.9380  -21.3180  -36.8070 C.2   132  GLN132      0.2608
    154  OE1      -42.9180  -20.7500  -36.3070 O.2   132  GLN132     -0.2717
    155  NE2      -42.0470  -22.1440  -37.8360 N.am  132  GLN132     -0.0878
    156  N        -41.1670  -17.7970  -33.0270 N.am  133  ASN133     -0.1974
    157  CA       -40.8540  -16.5650  -32.3130 C.3   133  ASN133      0.1688
    158  C        -41.2770  -16.6020  -30.8520 C.2   133  ASN133      0.2292
    159  O        -41.2940  -15.5680  -30.1880 O.2   133  ASN133     -0.2864
    160  CB       -41.4790  -15.3490  -33.0070 C.3   133  ASN133      0.1181
    161  CG       -40.9780  -15.1530  -34.4400 C.2   133  ASN133      0.2629
    162  OD1      -39.9200  -15.6530  -34.8280 O.2   133  ASN133     -0.2716
    163  ND2      -41.7420  -14.4140  -35.2280 N.am  133  ASN133     -0.0877
    164  N        -40.3000  -18.3080  -27.2570 N.3   135  LEU135     -0.1245
    165  CA       -39.1520  -18.9980  -26.6690 C.3   135  LEU135      0.1561
    166  C        -39.4050  -19.5150  -25.2690 C.2   135  LEU135      0.2260
    167  O        -39.9920  -18.8280  -24.4310 O.2   135  LEU135     -0.2867
    168  CB       -37.9170  -18.0980  -26.6700 C.3   135  LEU135      0.0270
    169  CG       -37.5230  -17.4400  -27.9960 C.3   135  LEU135      0.0019
    170  CD1      -36.3430  -16.5110  -27.7660 C.3   135  LEU135      0.0001
    171  CD2      -37.2170  -18.4600  -29.1000 C.3   135  LEU135      0.0001
    172  N        -40.6540  -13.2920  -28.8510 N.3   145  ALA145     -0.1231
    173  CA       -39.3820  -12.8600  -29.4100 C.3   145  ALA145      0.1694
    174  C        -39.5740  -12.2950  -30.8040 C.2   145  ALA145      0.2592
    175  O        -40.6930  -12.2720  -31.3090 O.2   145  ALA145     -0.2718
    176  CB       -38.3930  -14.0070  -29.4290 C.3   145  ALA145      0.0304
    177  N        -38.4680  -11.8530  -31.4090 N.am  146  ASP146     -0.1974
    178  CA       -38.4370  -11.1940  -32.7230 C.3   146  ASP146      0.1709
    179  C        -39.5210  -10.1350  -32.9240 C.2   146  ASP146      0.2293
    180  O        -40.6210  -10.4340  -33.3950 O.2   146  ASP146     -0.2864
    181  CB       -38.4520  -12.2050  -33.8670 C.3   146  ASP146      0.1436
    182  CG       -37.6340  -11.7420  -35.0660 C.2   146  ASP146      0.3671
    183  OD1      -37.3850  -10.5250  -35.2050 O.co2 146  ASP146     -0.2456
    184  OD2      -37.2370  -12.6060  -35.8830 O.co2 146  ASP146     -0.2456
@<TRIPOS>BOND
     1    38    37   ar
     2    39    37   ar
     3    37    36    1
     4    18    17    1
     5    36    35    1
     6    35    32    1
     7    43    42    2
     8    17    16    1
     9    34    33    2
    10    42    41    1
    11    32    33    1
    12    32    31    1
    13    33    40   am
    14    16    15    1
    15    31    29   am
    16    40    41    1
    17   155   153   am
    18    29    30    2
    19    29    28    1
    20    15    14    1
    21    28    27    1
    22   153   154    2
    23   153   152    1
    24    14    11    1
    25   152   151    1
    26   184   182   ar
    27    27    21   am
    28    44    45    1
    29   151   148    1
    30   163   161   am
    31   183   182   ar
    32   182   181    1
    33    22    21    2
    34    11    12    1
    35    11    10    1
    36    21    20    1
    37    63    64    1
    38    63    62    1
    39   162   161    2
    40    12    13    2
    41    12    19   am
    42   146   145    1
    43    47    46    2
    44   161   160    1
    45    45    46    1
    46    45    48    1
    47    10     3   am
    48    19    20    1
    49    61    62    1
    50    61    60    1
    51    50    48    1
    52   148   147    1
    53   148   149    1
    54    58    59    2
    55    58    57    1
    56   181   178    1
    57    20    23    1
    58    48    49    1
    59   145   144    1
    60   180   179    2
    61   149   156   am
    62   149   150    2
    63    57    60    1
    64    57    56    1
    65     3     4    2
    66     3     2    1
    67   156   157    1
    68   160   157    1
    69   179   178    1
    70   143   144    1
    71   143   142    1
    72   178   177    1
    73    23    25    1
    74    23    24    1
    75     2     5    1
    76     2     1    1
    77   137   135   ar
    78   157   158    1
    79   138   139    1
    80   136   135   ar
    81   139   142    1
    82   139   140    1
    83     5     6    1
    84   135   134    1
    85   177   174   am
    86   175   174    2
    87    24    26    1
    88     6     7    1
    89   158   159    2
    90   174   173    1
    91   140   141    2
    92   134   131    1
    93     7     9   ar
    94     7     8   ar
    95    80    82   ar
    96    80    78   ar
    97   176   173    1
    98    82    81   ar
    99   173   172    1
   100   133   132    2
   101   132   131    1
   102   131   130    1
   103   171   169    1
   104    78    77   ar
   105   128   127    2
   106   130   123   am
   107    53    54    2
   108    53    52    1
   109    55    52    1
   110    81    79   ar
   111   169   170    1
   112   169   168    1
   113    52    51    1
   114   127   129   am
   115   127   126    1
   116    77    79   ar
   117    77    76    1
   118   125   122    1
   119   125   126    1
   120   123   122    1
   121   123   124    2
   122   122   121    1
   123   164   165    1
   124    70    69    1
   125    76    73    1
   126   168   165    1
   127   165   166    1
   128   100    98   ar
   129   100   102   ar
   130   114   113    2
   131    72    73    1
   132    98    97   ar
   133   121   113   am
   134   106   105    2
   135   113   112    1
   136    73    74    1
   137    69    71    1
   138    69    66    1
   139   102   101   ar
   140   166   167    2
   141   105   111   am
   142   105   104    1
   143    86    85    2
   144    74    75    2
   145    74    83   am
   146    97    96    1
   147    97    99   ar
   148   112   111    1
   149   112   115    1
   150   103   104    1
   151   103    94   am
   152    68    67    2
   153    66    65    1
   154    66    67    1
   155   101    99   ar
   156   107   104    1
   157   107   108    1
   158    93    96    1
   159    93    94    1
   160    93    92    1
   161    83    84    1
   162    85    92   am
   163    85    84    1
   164   109   108    1
   165    94    95    2
   166   115   116    1
   167   108   110    1
   168    84    87    1
   169    88    87    1
   170    88    89    1
   171   116   117   ar
   172   116   118   ar
   173    91    89   ar
   174   117   119   ar
   175   118   120   ar
   176    89    90   ar
   177   119   120   ar
