@<TRIPOS>MOLECULE
tmp/3doiA00.pdb
 132 129 0 0 0
SMALL
GASTEIGER

@<TRIPOS>ATOM
      1  N         32.4070    1.0590   55.2290 N.3    96  PHE96      -0.1241
      2  CA        31.5020    0.5280   54.2170 C.3    96  PHE96       0.1605
      3  C         31.8130   -0.9330   53.9100 C.2    96  PHE96       0.2264
      4  O         31.9960   -1.3100   52.7520 O.2    96  PHE96      -0.2867
      5  CB        31.5810    1.3620   52.9360 C.3    96  PHE96       0.0534
      6  CG        30.8670    2.6800   53.0260 C.ar   96  PHE96      -0.0203
      7  CD1       29.5020    2.7600   52.8070 C.ar   96  PHE96      -0.0042
      8  CD2       31.5600    3.8400   53.3300 C.ar   96  PHE96      -0.0042
      9  CE1       28.8420    3.9710   52.8900 C.ar   96  PHE96      -0.0003
     10  CE2       30.9060    5.0540   53.4140 C.ar   96  PHE96      -0.0003
     11  CZ        29.5450    5.1200   53.1930 C.ar   96  PHE96      -0.0000
     12  N         30.5610   -4.7610   55.4680 N.3    98  ASN98      -0.1240
     13  CA        29.8730   -5.6540   56.3620 C.3    98  ASN98       0.1653
     14  C         30.5210   -6.9980   56.3360 C.2    98  ASN98       0.2266
     15  O         31.2560   -7.3380   55.4140 O.2    98  ASN98      -0.2867
     16  CB        28.4060   -5.7780   55.9800 C.3    98  ASN98       0.1155
     17  CG        27.7760   -4.4440   55.7220 C.2    98  ASN98       0.2627
     18  OD1       28.0790   -3.4600   56.3940 O.2    98  ASN98      -0.2716
     19  ND2       26.9130   -4.3910   54.7290 N.am   98  ASN98      -0.0877
     20  N         26.2940   -3.1360   46.6100 N.3   177  GLY177     -0.1210
     21  CA        26.8230   -1.9200   47.2490 C.3   177  GLY177      0.1956
     22  C         28.1200   -2.1310   48.0010 C.2   177  GLY177      0.2612
     23  O         28.5520   -3.2730   48.1870 O.2   177  GLY177     -0.2717
     24  N         28.7440   -1.0330   48.4330 N.am  178  ALA178     -0.1965
     25  CA        30.0470   -1.1170   49.0990 C.3   178  ALA178      0.1728
     26  C         30.0390   -2.1180   50.2420 C.2   178  ALA178      0.2617
     27  O         31.0240   -2.8080   50.4720 O.2   178  ALA178     -0.2715
     28  CB        30.4930    0.2340   49.5860 C.3   178  ALA178      0.0334
     29  N         28.9080   -2.2170   50.9270 N.am  179  GLY179     -0.1940
     30  CA        28.7860   -3.0840   52.0960 C.3   179  GLY179      0.2014
     31  C         29.0290   -4.5710   51.8700 C.2   179  GLY179      0.2638
     32  O         29.3920   -5.2880   52.8130 O.2   179  GLY179     -0.2714
     33  N         28.8410   -5.0340   50.6320 N.am  180  GLU180     -0.1977
     34  CA        28.9690   -6.4480   50.3220 C.3   180  GLU180      0.1602
     35  C         30.2780   -6.7760   49.6320 C.2   180  GLU180      0.2287
     36  O         30.5880   -7.9410   49.4100 O.2   180  GLU180     -0.2864
     37  CB        27.7840   -6.9180   49.4890 C.3   180  GLU180      0.0415
     38  CG        26.4890   -6.8750   50.2460 C.3   180  GLU180      0.1163
     39  CD        26.0760   -5.4500   50.5870 C.2   180  GLU180      0.3649
     40  OE1       26.3740   -4.5150   49.7900 O.co2 180  GLU180     -0.2457
     41  OE2       25.4650   -5.2740   51.6590 O.co2 180  GLU180     -0.2457
     42  N         34.4620    4.9980   41.9080 N.3   225  LEU225     -0.1231
     43  CA        33.9290    5.7770   43.0260 C.3   225  LEU225      0.1693
     44  C         34.9810    5.9240   44.1360 C.2   225  LEU225      0.2592
     45  O         35.4900    7.0180   44.3680 O.2   225  LEU225     -0.2718
     46  CB        32.6200    5.1780   43.5560 C.3   225  LEU225      0.0284
     47  CG        31.8680    5.8970   44.7030 C.3   225  LEU225      0.0019
     48  CD1       31.4060    7.3120   44.3220 C.3   225  LEU225      0.0001
     49  CD2       30.6690    5.0800   45.2460 C.3   225  LEU225      0.0001
     50  N         35.3220    4.7940   44.7590 N.am  226  PHE226     -0.1976
     51  CA        36.2650    4.6980   45.8830 C.3   226  PHE226      0.1639
     52  C         37.7400    4.6570   45.4650 C.2   226  PHE226      0.2290
     53  O         38.6100    4.3070   46.2660 O.2   226  PHE226     -0.2864
     54  CB        35.9680    3.4330   46.7120 C.3   226  PHE226      0.0560
     55  CG        34.6330    3.4520   47.3920 C.ar  226  PHE226     -0.0200
     56  CD1       33.5520    2.7620   46.8530 C.ar  226  PHE226     -0.0042
     57  CD2       34.4420    4.1690   48.5720 C.ar  226  PHE226     -0.0042
     58  CE1       32.2980    2.7860   47.4800 C.ar  226  PHE226     -0.0003
     59  CE2       33.1970    4.1920   49.2070 C.ar  226  PHE226     -0.0003
     60  CZ        32.1250    3.5020   48.6560 C.ar  226  PHE226     -0.0000
     61  N         22.7530   -1.1390   43.4650 N.3   265  LEU265     -0.1231
     62  CA        22.5450   -0.0410   44.4010 C.3   265  LEU265      0.1693
     63  C         23.8690    0.5950   44.8100 C.2   265  LEU265      0.2593
     64  O         24.9070   -0.0670   44.8260 O.2   265  LEU265     -0.2718
     65  CB        21.7910   -0.5280   45.6400 C.3   265  LEU265      0.0284
     66  CG        22.2450   -1.8660   46.2280 C.3   265  LEU265      0.0019
     67  CD1       21.1220   -2.8890   46.1680 C.3   265  LEU265      0.0001
     68  CD2       23.4820   -2.3780   45.5070 C.3   265  LEU265      0.0001
     69  N         23.8260    1.8810   45.1400 N.am  266  SER266     -0.1938
     70  CA        25.0110    2.5960   45.5970 C.3   266  SER266      0.2055
     71  C         26.1920    2.3610   44.6610 C.2   266  SER266      0.2642
     72  O         26.0670    2.4910   43.4430 O.2   266  SER266     -0.2714
     73  CB        25.3770    2.1720   47.0210 C.3   266  SER266      0.2130
     74  OG        26.2450    3.1130   47.6270 O.3   266  SER266     -0.2179
     75  N         27.3380    2.0140   45.2370 N.am  267  MET267     -0.1976
     76  CA        28.4860    1.5710   44.4550 C.3   267  MET267      0.1605
     77  C         28.0530    0.6790   43.2970 C.2   267  MET267      0.2287
     78  O         28.5540    0.8090   42.1800 O.2   267  MET267     -0.2864
     79  CB        29.4860    0.8290   45.3440 C.3   267  MET267      0.0413
     80  CG        30.8830    0.7250   44.7540 C.3   267  MET267      0.0598
     81  SD        31.8950   -0.5190   45.5780 S.3   267  MET267     -0.1393
     82  CE        30.8950   -1.9850   45.3340 C.3   267  MET267      0.0692
     83  N         26.0400    3.6500   40.9800 N.3   270  TYR270     -0.1241
     84  CA        27.1840    4.2180   40.2770 C.3   270  TYR270      0.1605
     85  C         27.7060    3.2610   39.2110 C.2   270  TYR270      0.2264
     86  O         27.9760    3.6640   38.0790 O.2   270  TYR270     -0.2867
     87  CB        28.3000    4.5670   41.2630 C.3   270  TYR270      0.0534
     88  CG        28.1070    5.8940   41.9630 C.ar  270  TYR270     -0.0201
     89  CD1       28.4370    7.0870   41.3340 C.ar  270  TYR270     -0.0009
     90  CD2       27.5950    5.9530   43.2520 C.ar  270  TYR270     -0.0009
     91  CE1       28.2630    8.3010   41.9690 C.ar  270  TYR270      0.0417
     92  CE2       27.4170    7.1630   43.8950 C.ar  270  TYR270      0.0417
     93  CZ        27.7520    8.3340   43.2500 C.ar  270  TYR270      0.1957
     94  OH        27.5770    9.5410   43.8860 O.3   270  TYR270     -0.2866
     95  N         23.6230    9.3340   52.4180 N.3   316  VAL316     -0.1231
     96  CA        24.8790    8.6970   51.9450 C.3   316  VAL316      0.1692
     97  C         25.1860    9.1080   50.4930 C.2   316  VAL316      0.2591
     98  O         26.2220    9.7380   50.2510 O.2   316  VAL316     -0.2718
     99  CB        24.8710    7.1220   52.0660 C.3   316  VAL316      0.0266
    100  CG1       26.1680    6.5380   51.5360 C.3   316  VAL316      0.0020
    101  CG2       24.6420    6.6700   53.5070 C.3   316  VAL316      0.0020
    102  N         24.2910    8.7460   49.5570 N.am  317  VAL317     -0.1980
    103  CA        24.3440    9.2090   48.1560 C.3   317  VAL317      0.1595
    104  C         23.2070   10.2300   47.8930 C.2   317  VAL317      0.2287
    105  O         22.0510    9.8300   47.7030 O.2   317  VAL317     -0.2864
    106  CB        24.2680    8.0230   47.1080 C.3   317  VAL317      0.0276
    107  CG1       24.4500    8.5390   45.7180 C.3   317  VAL317      0.0022
    108  CG2       25.3260    6.9770   47.3520 C.3   317  VAL317      0.0022
    109  N         18.8050    5.4740   53.0890 N.3   354  HIS354     -0.1241
    110  CA        19.7610    5.0590   52.0660 C.3   354  HIS354      0.1621
    111  C         19.3360    3.7620   51.3930 C.2   354  HIS354      0.2264
    112  O         19.6530    3.5710   50.2300 O.2   354  HIS354     -0.2867
    113  CB        21.1890    4.9390   52.6260 C.3   354  HIS354      0.0745
    114  CG        22.2100    4.4960   51.6150 C.ar  354  HIS354      0.0817
    115  ND1       22.5440    5.2500   50.5050 N.ar  354  HIS354     -0.2268
    116  CD2       22.9680    3.3720   51.5450 C.ar  354  HIS354      0.1154
    117  CE1       23.4620    4.6120   49.7980 C.ar  354  HIS354      0.1986
    118  NE2       23.7360    3.4690   50.4050 N.ar  354  HIS354     -0.2212
    119  N         16.7770    0.6340   47.7380 N.3   357  TRP357     -0.1241
    120  CA        16.6500   -0.5880   46.9420 C.3   357  TRP357      0.1605
    121  C         15.5750   -1.4990   47.4770 C.2   357  TRP357      0.2264
    122  O         15.0790   -2.3440   46.7490 O.2   357  TRP357     -0.2867
    123  CB        17.9630   -1.3510   46.8690 C.3   357  TRP357      0.0550
    124  CG        18.6070   -1.6180   48.2220 C.ar  357  TRP357      0.0003
    125  CD1       18.4010   -2.7090   49.0380 C.ar  357  TRP357      0.0946
    126  CD2       19.5770   -0.7860   48.9050 C.ar  357  TRP357      0.0152
    127  NE1       19.1770   -2.6020   50.1720 N.ar  357  TRP357     -0.2442
    128  CE2       19.9080   -1.4380   50.1160 C.ar  357  TRP357      0.0810
    129  CE3       20.1960    0.4410   48.6080 C.ar  357  TRP357      0.0012
    130  CZ2       20.8450   -0.8990   51.0290 C.ar  357  TRP357      0.0191
    131  CZ3       21.1240    0.9650   49.5120 C.ar  357  TRP357      0.0001
    132  CH2       21.4340    0.2990   50.7080 C.ar  357  TRP357      0.0015
@<TRIPOS>BOND
     1    86    85    2
     2    85    84    1
     3    84    83    1
     4    84    87    1
     5    87    88    1
     6    89    88   ar
     7    89    91   ar
     8    42    43    1
     9    88    90   ar
    10    91    93   ar
    11    78    77    2
    12    43    46    1
    13    43    44    1
    14    93    94    1
    15    93    92   ar
    16    90    92   ar
    17    77    76    1
    18    72    71    2
    19    61    62    1
    20    46    47    1
    21    44    45    2
    22    44    50   am
    23    48    47    1
    24    62    63    1
    25    62    65    1
    26    76    75    1
    27    76    79    1
    28    71    75   am
    29    71    70    1
    30    47    49    1
    31    80    79    1
    32    80    81    1
    33    50    51    1
    34    63    64    2
    35    63    69   am
    36    69    70    1
    37    82    81    1
    38    52    51    1
    39    52    53    2
    40    68    66    1
    41    70    73    1
    42    65    66    1
    43   107   106    1
    44    51    54    1
    45    67    66    1
    46    20    21    1
    47    54    55    1
    48   122   121    2
    49    56    55   ar
    50    56    58   ar
    51   123   120    1
    52   123   124    1
    53   120   121    1
    54   120   119    1
    55    73    74    1
    56   106   108    1
    57   106   103    1
    58    21    22    1
    59    55    57   ar
    60    58    60   ar
    61   105   104    2
    62   104   103    1
    63    22    23    2
    64    22    24   am
    65   103   102    1
    66   124   126   ar
    67   124   125   ar
    68    24    25    1
    69    57    59   ar
    70   129   126   ar
    71   129   131   ar
    72    60    59   ar
    73   126   128   ar
    74   125   127   ar
    75    25    28    1
    76    25    26    1
    77    36    35    2
    78    37    38    1
    79    37    34    1
    80   131   132   ar
    81   102    97   am
    82    35    34    1
    83    40    39   ar
    84   117   118   ar
    85   117   115   ar
    86   128   127   ar
    87   128   130   ar
    88   112   111    2
    89    26    27    2
    90    26    29   am
    91    38    39    1
    92    98    97    2
    93    34    33    1
    94   118   116   ar
    95    97    96    1
    96   115   114   ar
    97    39    41   ar
    98    33    31   am
    99   132   130   ar
   100    29    30    1
   101   111   110    1
   102   100    99    1
   103   116   114   ar
   104   114   113    1
   105    31    30    1
   106    31    32    2
   107    96    99    1
   108    96    95    1
   109    99   101    1
   110   110   113    1
   111   110   109    1
   112     4     3    2
   113     7     9   ar
   114     7     6   ar
   115     9    11   ar
   116     5     6    1
   117     5     2    1
   118     6     8   ar
   119    11    10   ar
   120     8    10   ar
   121     3     2    1
   122     2     1    1
   123    19    17   am
   124    15    14    2
   125    12    13    1
   126    17    16    1
   127    17    18    2
   128    16    13    1
   129    14    13    1
