@<TRIPOS>MOLECULE
tmp/3dokA00.pdb
 210 209 0 0 0
SMALL
GASTEIGER

@<TRIPOS>ATOM
      1  N          6.5520  -28.7600   26.3250 N.3    92  PRO92      -0.2116
      2  CA         5.8330  -28.8820   25.0510 C.3    92  PRO92       0.1372
      3  C          4.8930  -27.7320   24.7480 C.2    92  PRO92       0.2244
      4  O          4.2160  -27.2480   25.6350 O.2    92  PRO92      -0.2868
      5  CB         5.0570  -30.1800   25.2200 C.3    92  PRO92       0.0268
      6  CG         5.8710  -30.9400   26.2210 C.3    92  PRO92       0.0207
      7  CD         6.2450  -29.9100   27.1960 C.3    92  PRO92       0.0892
      8  N          1.7680  -30.7590   19.1370 N.3    97  LEU97      -0.1231
      9  CA         1.1310  -32.0370   19.4380 C.3    97  LEU97       0.1693
     10  C          0.4320  -32.5400   18.1880 C.2    97  LEU97       0.2592
     11  O         -0.3150  -31.8060   17.5280 O.2    97  LEU97      -0.2718
     12  CB         0.1110  -31.8700   20.5410 C.3    97  LEU97       0.0284
     13  CG         0.5380  -31.3390   21.9030 C.3    97  LEU97       0.0019
     14  CD1       -0.6230  -30.6030   22.5650 C.3    97  LEU97       0.0001
     15  CD2        0.9750  -32.4940   22.7570 C.3    97  LEU97       0.0001
     16  N          0.6950  -33.7870   17.8330 N.am   98  LYS98      -0.1966
     17  CA         0.0560  -34.3360   16.6520 C.3    98  LYS98       0.1728
     18  C         -1.3260  -34.7210   17.0930 C.2    98  LYS98       0.2616
     19  O         -1.4880  -35.4300   18.0880 O.2    98  LYS98      -0.2715
     20  CB         0.7890  -35.5810   16.1490 C.3    98  LYS98       0.0311
     21  CG         2.1230  -35.2920   15.4980 C.3    98  LYS98       0.0038
     22  CD         2.9510  -36.5570   15.3140 C.3    98  LYS98       0.0206
     23  CE         4.3940  -36.2360   14.8820 C.3    98  LYS98       0.1093
     24  NZ         5.1540  -37.4420   14.4140 N.3    98  LYS98      -0.1314
     25  N         -2.3170  -34.2320   16.3640 N.am   99  LYS99      -0.1963
     26  CA        -3.7000  -34.5370   16.6560 C.3    99  LYS99       0.1728
     27  C         -3.9180  -36.0580   16.7330 C.2    99  LYS99       0.2616
     28  O         -3.5790  -36.7960   15.8020 O.2    99  LYS99      -0.2715
     29  CB        -4.5700  -33.9060   15.5810 C.3    99  LYS99       0.0311
     30  CG        -5.9970  -34.3700   15.6010 C.3    99  LYS99       0.0038
     31  CD        -6.9200  -33.3410   14.9640 C.3    99  LYS99       0.0206
     32  CE        -8.0450  -33.0170   15.9320 C.3    99  LYS99       0.1093
     33  NZ        -8.6540  -34.2800   16.4920 N.3    99  LYS99      -0.1314
     34  N         -4.4550  -36.5160   17.8650 N.am  100  ASN100     -0.1958
     35  CA        -4.7320  -37.9400   18.1210 C.3   100  ASN100      0.1819
     36  C         -6.2450  -38.0960   18.3370 C.2   100  ASN100      0.2621
     37  O         -6.9020  -37.1300   18.7230 O.2   100  ASN100     -0.2715
     38  CB        -3.9910  -38.4030   19.3880 C.3   100  ASN100      0.1195
     39  CG        -2.7200  -39.2030   19.0910 C.2   100  ASN100      0.2630
     40  OD1       -2.7860  -40.3460   18.6710 O.2   100  ASN100     -0.2716
     41  ND2       -1.5600  -38.5940   19.3220 N.am  100  ASN100     -0.0877
     42  N         -6.7950  -39.2910   18.0970 N.am  101  LYS101     -0.1963
     43  CA        -8.2340  -39.5280   18.2650 C.3   101  LYS101      0.1728
     44  C         -8.6170  -39.5300   19.7300 C.2   101  LYS101      0.2617
     45  O         -9.7220  -39.1240   20.1150 O.2   101  LYS101     -0.2715
     46  CB        -8.6570  -40.8580   17.6390 C.3   101  LYS101      0.0311
     47  CG        -9.2040  -40.7590   16.2250 C.3   101  LYS101      0.0038
     48  CD        -9.4710  -42.1630   15.6450 C.3   101  LYS101      0.0206
     49  CE        -9.8810  -42.1430   14.1610 C.3   101  LYS101      0.1093
     50  NZ       -11.2220  -41.5170   13.9170 N.3   101  LYS101     -0.1314
     51  N         -7.7010  -39.9930   20.5560 N.am  102  SER102     -0.1936
     52  CA        -7.9660  -40.0220   21.9780 C.3   102  SER102      0.2055
     53  C         -6.7110  -39.7780   22.7700 C.2   102  SER102      0.2642
     54  O         -5.6140  -40.2000   22.3910 O.2   102  SER102     -0.2714
     55  CB        -8.5550  -41.3630   22.3940 C.3   102  SER102      0.2130
     56  OG        -9.9420  -41.3820   22.1280 O.3   102  SER102     -0.2179
     57  N         -6.8700  -39.0820   23.8770 N.am  103  VAL103     -0.1977
     58  CA        -5.7430  -38.8320   24.7260 C.3   103  VAL103      0.1596
     59  C         -6.2150  -39.0190   26.1490 C.2   103  VAL103      0.2287
     60  O         -7.3460  -38.6600   26.5130 O.2   103  VAL103     -0.2864
     61  CB        -5.2150  -37.4300   24.5380 C.3   103  VAL103      0.0276
     62  CG1       -4.4380  -37.0110   25.7700 C.3   103  VAL103      0.0022
     63  CG2       -4.3400  -37.3830   23.3020 C.3   103  VAL103      0.0022
     64  N         -4.9140  -38.5830   30.3010 N.3   105  VAL105     -0.1245
     65  CA        -3.8350  -38.0120   31.1240 C.3   105  VAL105      0.1561
     66  C         -3.7760  -38.8760   32.3800 C.2   105  VAL105      0.2260
     67  O         -4.7810  -39.1500   33.0150 O.2   105  VAL105     -0.2867
     68  CB        -4.0060  -36.4850   31.5880 C.3   105  VAL105      0.0252
     69  CG1       -4.4700  -35.5660   30.4460 C.3   105  VAL105      0.0019
     70  CG2       -4.9200  -36.4150   32.7440 C.3   105  VAL105      0.0019
     71  N          1.4000  -43.0290   21.6690 N.3   176  VAL176     -0.1245
     72  CA         2.2860  -41.9290   22.0270 C.3   176  VAL176      0.1561
     73  C          2.1440  -41.5520   23.5020 C.2   176  VAL176      0.2260
     74  O          1.0450  -41.2660   23.9870 O.2   176  VAL176     -0.2867
     75  CB         2.0220  -40.6960   21.0980 C.3   176  VAL176      0.0252
     76  CG1        2.1150  -39.4510   21.8520 C.3   176  VAL176      0.0019
     77  CG2        3.0360  -40.6580   19.9770 C.3   176  VAL176      0.0019
     78  N          3.6100  -38.9060   26.1820 N.3   178  TYR178     -0.1241
     79  CA         4.4130  -37.7630   26.5570 C.3   178  TYR178      0.1605
     80  C          4.7030  -37.8640   28.0660 C.2   178  TYR178      0.2264
     81  O          3.9000  -38.3910   28.8520 O.2   178  TYR178     -0.2867
     82  CB         3.6760  -36.4650   26.1890 C.3   178  TYR178      0.0534
     83  CG         3.5690  -36.2340   24.6800 C.ar  178  TYR178     -0.0201
     84  CD1        3.2470  -34.9670   24.1620 C.ar  178  TYR178     -0.0009
     85  CD2        3.8140  -37.2730   23.7730 C.ar  178  TYR178     -0.0009
     86  CE1        3.1740  -34.7400   22.7770 C.ar  178  TYR178      0.0417
     87  CE2        3.7520  -37.0610   22.3950 C.ar  178  TYR178      0.0417
     88  CZ         3.4270  -35.7950   21.8960 C.ar  178  TYR178      0.1957
     89  OH         3.3560  -35.6030   20.5220 O.3   178  TYR178     -0.2866
     90  N          5.9350  -35.7070   31.4180 N.3   180  TYR180     -0.1241
     91  CA         6.0860  -34.3690   31.9380 C.3   180  TYR180      0.1605
     92  C          5.8610  -34.3590   33.4230 C.2   180  TYR180      0.2264
     93  O          4.7490  -34.5170   33.9030 O.2   180  TYR180     -0.2867
     94  CB         5.1160  -33.4090   31.2650 C.3   180  TYR180      0.0534
     95  CG         5.3260  -31.9880   31.7160 C.ar  180  TYR180     -0.0201
     96  CD1        4.7740  -31.5350   32.9160 C.ar  180  TYR180     -0.0009
     97  CD2        6.1420  -31.1100   30.9840 C.ar  180  TYR180     -0.0009
     98  CE1        5.0290  -30.2460   33.3900 C.ar  180  TYR180      0.0417
     99  CE2        6.4020  -29.8180   31.4520 C.ar  180  TYR180      0.0417
    100  CZ         5.8410  -29.3950   32.6590 C.ar  180  TYR180      0.1957
    101  OH         6.0900  -28.1340   33.1530 O.3   180  TYR180     -0.2866
    102  N          0.8810  -38.2120   29.2700 N.3   185  TYR185     -0.1227
    103  CA        -0.2210  -37.7980   28.4320 C.3   185  TYR185      0.1736
    104  C         -0.1470  -38.8760   27.3870 C.2   185  TYR185      0.2595
    105  O          0.7760  -38.8940   26.5940 O.2   185  TYR185     -0.2718
    106  CB         0.0550  -36.3950   27.8870 C.3   185  TYR185      0.0548
    107  CG         0.1760  -35.3960   29.0190 C.ar  185  TYR185     -0.0200
    108  CD1        1.3200  -34.6040   29.1780 C.ar  185  TYR185     -0.0009
    109  CD2       -0.7970  -35.3540   30.0200 C.ar  185  TYR185     -0.0009
    110  CE1        1.4880  -33.8150   30.3220 C.ar  185  TYR185      0.0417
    111  CE2       -0.6380  -34.5790   31.1620 C.ar  185  TYR185      0.0417
    112  CZ         0.5020  -33.8170   31.3250 C.ar  185  TYR185      0.1957
    113  OH         0.6770  -33.1390   32.5300 O.3   185  TYR185     -0.2866
    114  N         -1.0850  -39.8220   27.4440 N.am  186  VAL186     -0.1966
    115  CA        -1.1080  -40.9670   26.5250 C.3   186  VAL186      0.1727
    116  C         -2.1470  -40.8040   25.4330 C.2   186  VAL186      0.2616
    117  O         -3.3420  -40.6880   25.7060 O.2   186  VAL186     -0.2715
    118  CB        -1.3830  -42.2650   27.2870 C.3   186  VAL186      0.0290
    119  CG1       -1.1890  -43.4430   26.3690 C.3   186  VAL186      0.0023
    120  CG2       -0.4450  -42.3820   28.4610 C.3   186  VAL186      0.0023
    121  N         -1.6850  -40.7940   24.1890 N.am  187  GLY187     -0.1955
    122  CA        -2.6040  -40.6020   23.0760 C.3   187  GLY187      0.1869
    123  C         -2.4060  -41.5810   21.9420 C.2   187  GLY187      0.2309
    124  O         -1.2840  -42.0250   21.6990 O.2   187  GLY187     -0.2863
    125  N         -8.6210  -36.8170   34.7250 N.3   220  LYS220     -0.1245
    126  CA        -8.9860  -35.6170   33.9880 C.3   220  LYS220      0.1561
    127  C         -9.7540  -35.8320   32.7180 C.2   220  LYS220      0.2260
    128  O         -9.4940  -36.7810   31.9640 O.2   220  LYS220     -0.2867
    129  CB        -7.7410  -34.8090   33.6230 C.3   220  LYS220      0.0271
    130  CG        -6.8290  -34.4950   34.7720 C.3   220  LYS220      0.0035
    131  CD        -7.1400  -33.1600   35.3970 C.3   220  LYS220      0.0206
    132  CE        -6.3850  -33.0540   36.6990 C.3   220  LYS220      0.1093
    133  NZ        -5.0110  -33.5800   36.4840 N.3   220  LYS220     -0.1314
    134  N        -11.2170  -33.6010   29.2200 N.3   222  PRO222     -0.2116
    135  CA       -10.9850  -32.3620   28.4740 C.3   222  PRO222      0.1372
    136  C        -12.1170  -31.4050   28.6870 C.2   222  PRO222      0.2244
    137  O        -13.1650  -31.7780   29.1960 O.2   222  PRO222     -0.2868
    138  CB       -10.8970  -32.8260   27.0290 C.3   222  PRO222      0.0268
    139  CG       -11.7210  -34.0330   27.0030 C.3   222  PRO222      0.0207
    140  CD       -11.4240  -34.7340   28.3050 C.3   222  PRO222      0.0892
    141  N         -8.3440  -29.9080   28.3960 N.3   224  PHE224     -0.1227
    142  CA        -7.2880  -30.0520   29.3710 C.3   224  PHE224      0.1736
    143  C         -6.6700  -28.7190   29.7200 C.2   224  PHE224      0.2595
    144  O         -6.3310  -27.8840   28.8340 O.2   224  PHE224     -0.2718
    145  CB        -6.2350  -31.0300   28.8710 C.3   224  PHE224      0.0547
    146  CG        -6.6970  -32.4420   28.8990 C.ar  224  PHE224     -0.0202
    147  CD1       -7.0270  -33.0430   30.1150 C.ar  224  PHE224     -0.0042
    148  CD2       -6.8770  -33.1530   27.7180 C.ar  224  PHE224     -0.0042
    149  CE1       -7.5430  -34.3260   30.1600 C.ar  224  PHE224     -0.0003
    150  CE2       -7.3960  -34.4430   27.7480 C.ar  224  PHE224     -0.0003
    151  CZ        -7.7300  -35.0320   28.9790 C.ar  224  PHE224     -0.0000
    152  N         -6.5600  -28.5170   31.0320 N.am  225  LEU225     -0.1966
    153  CA        -5.9940  -27.2930   31.5440 C.3   225  LEU225      0.1728
    154  C         -4.5010  -27.4570   31.4870 C.2   225  LEU225      0.2616
    155  O         -3.9490  -28.3630   32.1140 O.2   225  LEU225     -0.2715
    156  CB        -6.4060  -27.0600   32.9850 C.3   225  LEU225      0.0311
    157  CG        -6.8870  -25.6190   33.1770 C.3   225  LEU225      0.0022
    158  CD1       -8.4240  -25.6120   33.2390 C.3   225  LEU225      0.0001
    159  CD2       -6.2760  -25.0190   34.4600 C.3   225  LEU225      0.0001
    160  N         -3.8270  -26.5810   30.7590 N.am  226  TRP226     -0.1974
    161  CA        -2.3940  -26.7270   30.6490 C.3   226  TRP226      0.1640
    162  C         -1.7550  -25.4060   30.2380 C.2   226  TRP226      0.2290
    163  O         -1.8590  -24.9890   29.0730 O.2   226  TRP226     -0.2864
    164  CB        -2.0640  -27.8360   29.6380 C.3   226  TRP226      0.0576
    165  CG        -0.7630  -28.5590   29.8710 C.ar  226  TRP226      0.0006
    166  CD1       -0.4830  -29.4660   30.8520 C.ar  226  TRP226      0.0946
    167  CD2        0.4010  -28.4710   29.0620 C.ar  226  TRP226      0.0152
    168  NE1        0.7950  -29.9560   30.7080 N.ar  226  TRP226     -0.2442
    169  CE2        1.3610  -29.3650   29.6070 C.ar  226  TRP226      0.0810
    170  CE3        0.7350  -27.7230   27.9240 C.ar  226  TRP226      0.0012
    171  CZ2        2.6270  -29.5450   29.0360 C.ar  226  TRP226      0.0191
    172  CZ3        1.9890  -27.8980   27.3570 C.ar  226  TRP226      0.0001
    173  CH2        2.9230  -28.8030   27.9110 C.ar  226  TRP226      0.0015
    174  N         -6.9500  -27.4600   26.0630 N.3   231  LEU231     -0.1231
    175  CA        -6.7830  -28.4790   25.0570 C.3   231  LEU231      0.1693
    176  C         -8.0500  -29.2770   24.7110 C.2   231  LEU231      0.2592
    177  O         -8.5230  -30.1150   25.4720 O.2   231  LEU231     -0.2718
    178  CB        -5.6380  -29.3820   25.4830 C.3   231  LEU231      0.0284
    179  CG        -4.3250  -28.8630   24.8780 C.3   231  LEU231      0.0019
    180  CD1       -4.2620  -27.3280   24.9060 C.3   231  LEU231      0.0001
    181  CD2       -3.1630  -29.4850   25.6080 C.3   231  LEU231      0.0001
    182  N         -8.6070  -28.9770   23.5470 N.am  232  HIS232     -0.1962
    183  CA        -9.7980  -29.6540   23.0750 C.3   232  HIS232      0.1772
    184  C         -9.3590  -30.7150   22.0980 C.2   232  HIS232      0.2462
    185  O         -8.2280  -30.7110   21.6390 O.2   232  HIS232     -0.2730
    186  CB       -10.7520  -28.6930   22.3600 C.3   232  HIS232      0.0785
    187  CG       -11.0350  -27.4410   23.1270 C.ar  232  HIS232      0.0821
    188  ND1      -11.2670  -27.4380   24.4850 N.ar  232  HIS232     -0.2267
    189  CD2      -11.1510  -26.1570   22.7200 C.ar  232  HIS232      0.1154
    190  CE1      -11.5170  -26.2030   24.8820 C.ar  232  HIS232      0.1986
    191  NE2      -11.4530  -25.4070   23.8300 N.ar  232  HIS232     -0.2212
    192  N        -10.2600  -31.6380   21.7630 N.am  233  PRO233     -0.2727
    193  CA        -9.9640  -32.7190   20.8350 C.3   233  PRO233      0.1402
    194  C         -9.4940  -32.3260   19.4540 C.2   233  PRO233      0.2269
    195  O         -8.7130  -33.0490   18.8450 O.2   233  PRO233     -0.2865
    196  CB       -11.2710  -33.4860   20.8040 C.3   233  PRO233      0.0296
    197  CG       -11.7030  -33.3850   22.2160 C.3   233  PRO233      0.0237
    198  CD       -11.5120  -31.9210   22.4870 C.3   233  PRO233      0.0939
    199  N         -3.7530  -28.5880   15.7750 N.3   314  TYR314     -0.1241
    200  CA        -2.6120  -29.3950   16.1810 C.3   314  TYR314      0.1605
    201  C         -1.8110  -29.7910   14.9340 C.2   314  TYR314      0.2264
    202  O         -2.3020  -29.6600   13.8000 O.2   314  TYR314     -0.2867
    203  CB        -3.0830  -30.6410   16.9300 C.3   314  TYR314      0.0534
    204  CG        -3.7780  -30.3290   18.2330 C.ar  314  TYR314     -0.0201
    205  CD1       -3.0570  -30.1330   19.3970 C.ar  314  TYR314     -0.0009
    206  CD2       -5.1620  -30.2590   18.3060 C.ar  314  TYR314     -0.0009
    207  CE1       -3.6910  -29.8820   20.5960 C.ar  314  TYR314      0.0417
    208  CE2       -5.8060  -30.0060   19.5010 C.ar  314  TYR314      0.0417
    209  CZ        -5.0670  -29.8220   20.6410 C.ar  314  TYR314      0.1957
    210  OH        -5.7030  -29.5780   21.8360 O.3   314  TYR314     -0.2866
@<TRIPOS>BOND
     1   202   201    2
     2    50    49    1
     3    49    48    1
     4    24    23    1
     5    23    22    1
     6   201   200    1
     7    31    30    1
     8    31    32    1
     9    22    21    1
    10    21    20    1
    11    29    30    1
    12    29    26    1
    13    48    47    1
    14   199   200    1
    15    28    27    2
    16    32    33    1
    17    20    17    1
    18   200   203    1
    19    47    46    1
    20    25    26    1
    21    25    18   am
    22    17    18    1
    23    17    16    1
    24    26    27    1
    25    27    34   am
    26   203   204    1
    27    18    19    2
    28    11    10    2
    29    46    43    1
    30    16    10   am
    31    34    35    1
    32    42    43    1
    33    42    36   am
    34    35    36    1
    35    35    38    1
    36    10     9    1
    37   204   206   ar
    38   204   205   ar
    39    43    44    1
    40   206   208   ar
    41    36    37    2
    42    40    39    2
    43   195   194    2
    44    39    41   am
    45    39    38    1
    46     8     9    1
    47   205   207   ar
    48     9    12    1
    49   194   193    1
    50   208   209   ar
    51    44    45    2
    52    44    51   am
    53    77    75    1
    54    89    88    1
    55    12    13    1
    56    51    52    1
    57   207   209   ar
    58   209   210    1
    59   196   193    1
    60   196   197    1
    61   193   192    1
    62    75    76    1
    63    75    72    1
    64   185   184    2
    65    71    72    1
    66   124   123    2
    67   192   184   am
    68   192   198    1
    69    88    87   ar
    70    88    86   ar
    71    13    14    1
    72    13    15    1
    73   123   122    1
    74    52    55    1
    75    52    53    1
    76    72    73    1
    77   184   183    1
    78    56    55    1
    79   197   198    1
    80   186   183    1
    81   186   187    1
    82    54    53    2
    83    87    85   ar
    84   189   187   ar
    85   189   191   ar
    86    53    57   am
    87    86    84   ar
    88   183   182    1
    89   122   121    1
    90   187   188   ar
    91    63    61    1
    92    73    74    2
    93   182   176   am
    94    85    83   ar
    95   191   190   ar
    96    57    58    1
    97    84    83   ar
    98   121   116   am
    99   188   190   ar
   100    61    58    1
   101    61    62    1
   102    83    82    1
   103   176   175    1
   104   176   177    2
   105    58    59    1
   106     3     2    1
   107     3     4    2
   108   179   180    1
   109   179   178    1
   110   179   181    1
   111     2     5    1
   112     2     1    1
   113   175   178    1
   114   175   174    1
   115     5     6    1
   116   116   117    2
   117   116   115    1
   118    59    60    2
   119    78    79    1
   120    82    79    1
   121     6     7    1
   122     1     7    1
   123   119   118    1
   124   115   118    1
   125   115   114    1
   126    79    80    1
   127   105   104    2
   128   139   138    1
   129   139   140    1
   130   138   135    1
   131   118   120    1
   132   172   173   ar
   133   172   170   ar
   134   104   114   am
   135   104   103    1
   136   148   150   ar
   137   148   146   ar
   138   150   151   ar
   139   106   103    1
   140   106   107    1
   141   173   171   ar
   142   170   167   ar
   143    80    81    2
   144   140   134    1
   145   141   142    1
   146   103   102    1
   147   135   136    1
   148   135   134    1
   149   136   137    2
   150   144   143    2
   151   145   146    1
   152   145   142    1
   153   146   147   ar
   154   151   149   ar
   155   107   108   ar
   156   107   109   ar
   157   171   169   ar
   158   167   169   ar
   159   167   165   ar
   160   163   162    2
   161   108   110   ar
   162   142   143    1
   163   169   168   ar
   164   164   165    1
   165   164   161    1
   166   143   152   am
   167   165   166   ar
   168   109   111   ar
   169   147   149   ar
   170   162   161    1
   171    64    65    1
   172   110   112   ar
   173    69    68    1
   174   161   160    1
   175   168   166   ar
   176   160   154   am
   177    97    99   ar
   178    97    95   ar
   179   152   153    1
   180    65    68    1
   181    65    66    1
   182   111   112   ar
   183    94    95    1
   184    94    91    1
   185   112   113    1
   186    90    91    1
   187    99   100   ar
   188   154   153    1
   189   154   155    2
   190   153   156    1
   191    68    70    1
   192    95    96   ar
   193    91    92    1
   194   128   127    2
   195    66    67    2
   196   100   101    1
   197   100    98   ar
   198   127   126    1
   199    96    98   ar
   200   156   157    1
   201   157   158    1
   202   157   159    1
   203    92    93    2
   204   129   126    1
   205   129   130    1
   206   126   125    1
   207   130   131    1
   208   131   132    1
   209   133   132    1
