@<TRIPOS>MOLECULE
tmp/3dolA00.pdb
 208 208 0 0 0
SMALL
GASTEIGER

@<TRIPOS>ATOM
      1  N          6.1670  -29.6170   26.6310 N.3    92  PRO92      -0.2116
      2  CA         5.6050  -29.8290   25.2970 C.3    92  PRO92       0.1372
      3  C          4.6500  -28.6890   24.9520 C.2    92  PRO92       0.2244
      4  O          4.0350  -28.1080   25.8410 O.2    92  PRO92      -0.2868
      5  CB         4.8760  -31.1670   25.4410 C.3    92  PRO92       0.0268
      6  CG         5.6580  -31.8720   26.5060 C.3    92  PRO92       0.0207
      7  CD         5.9130  -30.7750   27.5040 C.3    92  PRO92       0.0892
      8  N          1.6580  -31.4610   18.8910 N.3    97  ILE97      -0.1231
      9  CA         1.1260  -32.7590   19.2670 C.3    97  ILE97       0.1692
     10  C          0.2620  -33.2980   18.1400 C.2    97  ILE97       0.2592
     11  O         -0.4490  -32.5460   17.4640 O.2    97  ILE97      -0.2718
     12  CB         0.2570  -32.6900   20.5410 C.3    97  ILE97       0.0266
     13  CG1        1.0680  -32.1380   21.7170 C.3    97  ILE97       0.0019
     14  CG2       -0.2280  -34.0800   20.8860 C.3    97  ILE97       0.0020
     15  CD1        0.3190  -32.1450   23.0660 C.3    97  ILE97       0.0001
     16  N          0.3290  -34.6080   17.9450 N.am   98  LYS98      -0.1966
     17  CA        -0.4440  -35.2680   16.9080 C.3    98  LYS98       0.1728
     18  C         -1.7910  -35.6790   17.4920 C.2    98  LYS98       0.2616
     19  O         -1.8530  -36.2650   18.5830 O.2    98  LYS98      -0.2715
     20  CB         0.3060  -36.5070   16.4280 C.3    98  LYS98       0.0311
     21  CG         1.7160  -36.2260   15.9310 C.3    98  LYS98       0.0038
     22  CD         2.5600  -37.4860   15.9560 C.3    98  LYS98       0.0206
     23  CE         3.8810  -37.2920   15.2420 C.3    98  LYS98       0.1093
     24  NZ         4.7610  -38.4860   15.4100 N.3    98  LYS98      -0.1314
     25  N         -2.8600  -35.3710   16.7620 N.am   99  LYS99      -0.1963
     26  CA        -4.2180  -35.7030   17.1860 C.3    99  LYS99       0.1728
     27  C         -4.4250  -37.2150   17.3160 C.2    99  LYS99       0.2616
     28  O         -3.9960  -37.9710   16.4540 O.2    99  LYS99      -0.2715
     29  CB        -5.2290  -35.1280   16.1870 C.3    99  LYS99       0.0311
     30  CG        -6.6690  -35.3720   16.5830 C.3    99  LYS99       0.0038
     31  CD        -7.6630  -34.7000   15.6650 C.3    99  LYS99       0.0206
     32  CE        -9.0940  -35.0080   16.1060 C.3    99  LYS99       0.1093
     33  NZ        -9.3680  -36.4770   16.2040 N.3    99  LYS99      -0.1314
     34  N         -5.0610  -37.6560   18.4040 N.am  100  LYS100     -0.1963
     35  CA        -5.3300  -39.0830   18.6140 C.3   100  LYS100      0.1728
     36  C         -6.8070  -39.3360   18.8920 C.2   100  LYS100      0.2616
     37  O         -7.4810  -38.4780   19.4570 O.2   100  LYS100     -0.2715
     38  CB        -4.5020  -39.6350   19.7790 C.3   100  LYS100      0.0311
     39  CG        -3.0520  -39.9280   19.4460 C.3   100  LYS100      0.0038
     40  CD        -2.9290  -41.0820   18.4670 C.3   100  LYS100      0.0206
     41  CE        -1.4750  -41.4960   18.2900 C.3   100  LYS100      0.1093
     42  NZ        -0.6390  -40.3520   17.8480 N.3   100  LYS100     -0.1314
     43  N         -7.3040  -40.5080   18.4920 N.am  101  LYS101     -0.1963
     44  CA        -8.7030  -40.8610   18.7130 C.3   101  LYS101      0.1728
     45  C         -9.0280  -40.8700   20.1980 C.2   101  LYS101      0.2617
     46  O        -10.0630  -40.3550   20.6270 O.2   101  LYS101     -0.2715
     47  CB        -9.0210  -42.2460   18.1400 C.3   101  LYS101      0.0311
     48  CG        -9.0790  -42.3110   16.6250 C.3   101  LYS101      0.0038
     49  CD        -9.6620  -43.6410   16.1570 C.3   101  LYS101      0.0206
     50  CE        -9.7910  -43.6930   14.6410 C.3   101  LYS101      0.1093
     51  NZ       -10.6840  -42.6170   14.1400 N.3   101  LYS101     -0.1314
     52  N         -8.1300  -41.4610   20.9750 N.am  102  SER102     -0.1936
     53  CA        -8.3060  -41.5670   22.4150 C.3   102  SER102      0.2055
     54  C         -7.0800  -41.1350   23.2030 C.2   102  SER102      0.2642
     55  O         -5.9420  -41.3860   22.8030 O.2   102  SER102     -0.2714
     56  CB        -8.6390  -43.0150   22.7930 C.3   102  SER102      0.2130
     57  OG        -9.8920  -43.4100   22.2760 O.3   102  SER102     -0.2179
     58  N         -7.3310  -40.5020   24.3420 N.am  103  VAL103     -0.1977
     59  CA        -6.2720  -40.0560   25.2330 C.3   103  VAL103      0.1596
     60  C         -6.6900  -40.2720   26.6870 C.2   103  VAL103      0.2287
     61  O         -7.7870  -39.8860   27.1220 O.2   103  VAL103     -0.2864
     62  CB        -5.9450  -38.5670   25.0220 C.3   103  VAL103      0.0276
     63  CG1       -5.0600  -38.0520   26.1600 C.3   103  VAL103      0.0022
     64  CG2       -5.2560  -38.3950   23.7060 C.3   103  VAL103      0.0022
     65  N         -5.1950  -39.7380   30.6040 N.3   105  VAL105     -0.1245
     66  CA        -4.1130  -39.1880   31.4090 C.3   105  VAL105      0.1561
     67  C         -4.0690  -39.9360   32.7350 C.2   105  VAL105      0.2260
     68  O         -5.0980  -40.1560   33.3740 O.2   105  VAL105     -0.2867
     69  CB        -4.2500  -37.6320   31.6420 C.3   105  VAL105      0.0252
     70  CG1       -5.3860  -37.0640   30.8230 C.3   105  VAL105      0.0019
     71  CG2       -4.4080  -37.3220   33.1080 C.3   105  VAL105      0.0019
     72  N          1.4670  -43.8910   21.7920 N.3   176  VAL176     -0.1245
     73  CA         2.3000  -42.7690   22.2100 C.3   176  VAL176      0.1561
     74  C          2.1060  -42.4750   23.7020 C.2   176  VAL176      0.2260
     75  O          0.9760  -42.3320   24.1700 O.2   176  VAL176     -0.2867
     76  CB         1.9450  -41.4880   21.4120 C.3   176  VAL176      0.0252
     77  CG1        2.8190  -40.3290   21.8670 C.3   176  VAL176      0.0019
     78  CG2        2.1280  -41.7250   19.9190 C.3   176  VAL176      0.0019
     79  N          3.4460  -39.8540   26.7300 N.3   178  TYR178     -0.1241
     80  CA         4.1710  -38.6820   27.1800 C.3   178  TYR178      0.1605
     81  C          4.5220  -38.8020   28.6660 C.2   178  TYR178      0.2264
     82  O          3.7020  -39.2460   29.4720 O.2   178  TYR178     -0.2867
     83  CB         3.3160  -37.4260   26.9790 C.3   178  TYR178      0.0534
     84  CG         3.1200  -37.0000   25.5350 C.ar  178  TYR178     -0.0201
     85  CD1        2.5950  -35.7490   25.2350 C.ar  178  TYR178     -0.0009
     86  CD2        3.4740  -37.8330   24.4730 C.ar  178  TYR178     -0.0009
     87  CE1        2.4280  -35.3300   23.9220 C.ar  178  TYR178      0.0417
     88  CE2        3.3070  -37.4200   23.1500 C.ar  178  TYR178      0.0417
     89  CZ         2.7830  -36.1630   22.8850 C.ar  178  TYR178      0.1957
     90  OH         2.6180  -35.7280   21.5880 O.3   178  TYR178     -0.2866
     91  N          0.6190  -39.2990   29.8200 N.3   185  TYR185     -0.1227
     92  CA        -0.4680  -38.9260   28.9130 C.3   185  TYR185      0.1736
     93  C         -0.3460  -39.9780   27.8100 C.2   185  TYR185      0.2595
     94  O          0.6210  -39.9600   27.0520 O.2   185  TYR185     -0.2718
     95  CB        -0.2400  -37.5130   28.3560 C.3   185  TYR185      0.0548
     96  CG        -0.0230  -36.4710   29.4380 C.ar  185  TYR185     -0.0200
     97  CD1        1.0930  -35.6350   29.4200 C.ar  185  TYR185     -0.0009
     98  CD2       -0.8980  -36.3700   30.5170 C.ar  185  TYR185     -0.0009
     99  CE1        1.3340  -34.7280   30.4540 C.ar  185  TYR185      0.0417
    100  CE2       -0.6660  -35.4730   31.5540 C.ar  185  TYR185      0.0417
    101  CZ         0.4520  -34.6580   31.5220 C.ar  185  TYR185      0.1957
    102  OH         0.6920  -33.7960   32.5720 O.3   185  TYR185     -0.2866
    103  N         -1.3150  -40.8960   27.7450 N.am  186  VAL186     -0.1966
    104  CA        -1.3040  -42.0190   26.7970 C.3   186  VAL186      0.1727
    105  C         -2.3240  -41.8940   25.6620 C.2   186  VAL186      0.2616
    106  O         -3.5190  -41.7240   25.9200 O.2   186  VAL186     -0.2715
    107  CB        -1.5790  -43.3340   27.5640 C.3   186  VAL186      0.0290
    108  CG1       -1.3290  -44.5320   26.6740 C.3   186  VAL186      0.0023
    109  CG2       -0.7210  -43.3910   28.8300 C.3   186  VAL186      0.0023
    110  N         -1.8640  -42.0190   24.4130 N.am  187  GLY187     -0.1955
    111  CA        -2.7680  -41.8700   23.2800 C.3   187  GLY187      0.1869
    112  C         -2.6370  -42.8490   22.1250 C.2   187  GLY187      0.2309
    113  O         -1.5320  -43.2490   21.7460 O.2   187  GLY187     -0.2863
    114  N         -9.4880  -37.8730   35.8760 N.3   220  LYS220     -0.1231
    115  CA        -9.5240  -36.5940   35.1520 C.3   220  LYS220      0.1693
    116  C        -10.1690  -36.8070   33.7750 C.2   220  LYS220      0.2592
    117  O         -9.8810  -37.7970   33.0960 O.2   220  LYS220     -0.2718
    118  CB        -8.1150  -36.0470   34.9110 C.3   220  LYS220      0.0285
    119  CG        -7.5090  -35.2010   36.0160 C.3   220  LYS220      0.0035
    120  CD        -6.0950  -34.8140   35.6080 C.3   220  LYS220      0.0206
    121  CE        -5.3010  -34.1910   36.7350 C.3   220  LYS220      0.1093
    122  NZ        -3.8280  -34.2420   36.4390 N.3   220  LYS220     -0.1314
    123  N        -11.0210  -35.8710   33.3590 N.am  221  GLU221     -0.1966
    124  CA       -11.6930  -35.9580   32.0620 C.3   221  GLU221      0.1718
    125  C        -11.5250  -34.6670   31.2440 C.2   221  GLU221      0.2458
    126  O        -11.3340  -33.5900   31.8050 O.2   221  GLU221     -0.2730
    127  CB       -13.1760  -36.2890   32.2680 C.3   221  GLU221      0.0428
    128  CG       -13.3990  -37.6540   32.9250 C.3   221  GLU221      0.1163
    129  CD       -12.9160  -38.8140   32.0600 C.2   221  GLU221      0.3649
    130  OE1      -12.5840  -39.8890   32.6140 O.co2 221  GLU221     -0.2457
    131  OE2      -12.8790  -38.6550   30.8210 O.co2 221  GLU221     -0.2457
    132  N        -11.5960  -34.7660   29.9030 N.am  222  PRO222     -0.2727
    133  CA       -11.4450  -33.6220   28.9930 C.3   222  PRO222      0.1402
    134  C        -12.6160  -32.6490   29.0310 C.2   222  PRO222      0.2269
    135  O        -13.7260  -33.0240   29.3970 O.2   222  PRO222     -0.2865
    136  CB       -11.3050  -34.2870   27.6310 C.3   222  PRO222      0.0296
    137  CG       -12.2730  -35.4330   27.7540 C.3   222  PRO222      0.0237
    138  CD       -11.9680  -35.9820   29.1520 C.3   222  PRO222      0.0939
    139  N         -8.8400  -31.1320   29.0970 N.3   224  PHE224     -0.1227
    140  CA        -7.8340  -31.1400   30.1480 C.3   224  PHE224      0.1736
    141  C         -7.2340  -29.7580   30.3890 C.2   224  PHE224      0.2595
    142  O         -6.8570  -29.0550   29.4440 O.2   224  PHE224     -0.2718
    143  CB        -6.7340  -32.1590   29.8070 C.3   224  PHE224      0.0547
    144  CG        -7.2590  -33.5480   29.5270 C.ar  224  PHE224     -0.0202
    145  CD1       -7.9800  -34.2430   30.4940 C.ar  224  PHE224     -0.0042
    146  CD2       -7.0560  -34.1480   28.2850 C.ar  224  PHE224     -0.0042
    147  CE1       -8.4970  -35.5140   30.2320 C.ar  224  PHE224     -0.0003
    148  CE2       -7.5680  -35.4160   28.0130 C.ar  224  PHE224     -0.0003
    149  CZ        -8.2910  -36.1010   28.9910 C.ar  224  PHE224     -0.0000
    150  N         -7.1620  -29.3710   31.6630 N.am  225  LEU225     -0.1966
    151  CA        -6.6120  -28.0740   32.0390 C.3   225  LEU225      0.1728
    152  C         -5.1390  -28.2470   32.3690 C.2   225  LEU225      0.2616
    153  O         -4.7520  -28.4650   33.5220 O.2   225  LEU225     -0.2715
    154  CB        -7.3790  -27.4920   33.2290 C.3   225  LEU225      0.0311
    155  CG        -8.8460  -27.1020   32.9760 C.3   225  LEU225      0.0022
    156  CD1       -8.9340  -26.1310   31.8020 C.3   225  LEU225      0.0001
    157  CD2       -9.6790  -28.3470   32.6920 C.3   225  LEU225      0.0001
    158  N         -4.3250  -28.1290   31.3270 N.am  226  TRP226     -0.1974
    159  CA        -2.8940  -28.3170   31.4300 C.3   226  TRP226      0.1640
    160  C         -2.1230  -27.0570   31.0410 C.2   226  TRP226      0.2290
    161  O         -2.4000  -26.4350   30.0100 O.2   226  TRP226     -0.2864
    162  CB        -2.4990  -29.4940   30.5200 C.3   226  TRP226      0.0576
    163  CG        -1.0670  -29.9130   30.5770 C.ar  226  TRP226      0.0006
    164  CD1       -0.4470  -30.5850   31.5870 C.ar  226  TRP226      0.0946
    165  CD2       -0.0710  -29.6740   29.5810 C.ar  226  TRP226      0.0152
    166  NE1        0.8800  -30.7810   31.2820 N.ar  226  TRP226     -0.2442
    167  CE2        1.1360  -30.2310   30.0540 C.ar  226  TRP226      0.0810
    168  CE3       -0.0810  -29.0370   28.3330 C.ar  226  TRP226      0.0012
    169  CZ2        2.3270  -30.1750   29.3210 C.ar  226  TRP226      0.0191
    170  CZ3        1.0960  -28.9760   27.6050 C.ar  226  TRP226      0.0001
    171  CH2        2.2880  -29.5440   28.1010 C.ar  226  TRP226      0.0015
    172  N         -7.3050  -28.3930   26.2880 N.3   231  LEU231     -0.1231
    173  CA        -7.1930  -29.3250   25.1730 C.3   231  LEU231      0.1693
    174  C         -8.4740  -30.1040   24.9490 C.2   231  LEU231      0.2592
    175  O         -8.9320  -30.8220   25.8270 O.2   231  LEU231     -0.2718
    176  CB        -6.0500  -30.3200   25.3960 C.3   231  LEU231      0.0284
    177  CG        -4.6450  -29.8350   25.7640 C.3   231  LEU231      0.0019
    178  CD1       -4.1880  -28.7340   24.8100 C.3   231  LEU231      0.0001
    179  CD2       -4.6620  -29.3360   27.1880 C.3   231  LEU231      0.0001
    180  N         -9.0420  -29.9510   23.7590 N.am  232  HIS232     -0.1962
    181  CA       -10.2600  -30.6490   23.3640 C.3   232  HIS232      0.1772
    182  C         -9.8090  -31.7030   22.3430 C.2   232  HIS232      0.2462
    183  O         -8.6700  -31.6910   21.8970 O.2   232  HIS232     -0.2730
    184  CB       -11.2450  -29.6600   22.7290 C.3   232  HIS232      0.0785
    185  CG       -11.5940  -28.5040   23.6170 C.ar  232  HIS232      0.0821
    186  ND1      -12.6010  -28.5620   24.5550 N.ar  232  HIS232     -0.2267
    187  CD2      -11.0290  -27.2800   23.7490 C.ar  232  HIS232      0.1154
    188  CE1      -12.6400  -27.4260   25.2290 C.ar  232  HIS232      0.1986
    189  NE2      -11.6950  -26.6320   24.7590 N.ar  232  HIS232     -0.2212
    190  N        -10.6830  -32.6420   21.9800 N.am  233  PRO233     -0.2727
    191  CA       -10.2220  -33.6360   21.0070 C.3   233  PRO233      0.1402
    192  C        -10.0020  -33.1560   19.5800 C.2   233  PRO233      0.2269
    193  O         -9.2440  -33.7690   18.8360 O.2   233  PRO233     -0.2865
    194  CB       -11.2950  -34.7280   21.0870 C.3   233  PRO233      0.0296
    195  CG       -12.5090  -34.0030   21.5910 C.3   233  PRO233      0.0237
    196  CD       -11.9240  -33.0840   22.6400 C.3   233  PRO233      0.0939
    197  N         -4.0850  -29.1650   16.1920 N.3   314  TYR314     -0.1241
    198  CA        -2.9650  -30.0880   16.4130 C.3   314  TYR314      0.1605
    199  C         -2.1850  -30.4120   15.1130 C.2   314  TYR314      0.2264
    200  O         -2.6290  -30.0900   14.0030 O.2   314  TYR314     -0.2867
    201  CB        -3.4750  -31.3700   17.0640 C.3   314  TYR314      0.0534
    202  CG        -4.1360  -31.1520   18.4160 C.ar  314  TYR314     -0.0201
    203  CD1       -3.4130  -30.6520   19.5050 C.ar  314  TYR314     -0.0009
    204  CD2       -5.4830  -31.4510   18.6070 C.ar  314  TYR314     -0.0009
    205  CE1       -4.0150  -30.4610   20.7420 C.ar  314  TYR314      0.0417
    206  CE2       -6.0990  -31.2610   19.8370 C.ar  314  TYR314      0.0417
    207  CZ        -5.3660  -30.7670   20.9040 C.ar  314  TYR314      0.1957
    208  OH        -5.9870  -30.5680   22.1220 O.3   314  TYR314     -0.2866
@<TRIPOS>BOND
     1   200   199    2
     2    51    50    1
     3    50    49    1
     4   199   198    1
     5    23    24    1
     6    23    22    1
     7    31    32    1
     8    31    30    1
     9    21    22    1
    10    21    20    1
    11    32    33    1
    12    49    48    1
    13    29    30    1
    14    29    26    1
    15   197   198    1
    16   198   201    1
    17    20    17    1
    18    28    27    2
    19    48    47    1
    20    25    26    1
    21    25    18   am
    22    17    18    1
    23    17    16    1
    24   201   202    1
    25    26    27    1
    26    27    34   am
    27    11    10    2
    28    18    19    2
    29    42    41    1
    30    16    10   am
    31    10     9    1
    32    47    44    1
    33    41    40    1
    34    34    35    1
    35   202   204   ar
    36   202   203   ar
    37    40    39    1
    38    43    44    1
    39    43    36   am
    40   204   206   ar
    41    35    36    1
    42    35    38    1
    43    44    45    1
    44   193   192    2
    45     8     9    1
    46    36    37    2
    47     9    12    1
    48    39    38    1
    49   203   205   ar
    50   192   191    1
    51   206   207   ar
    52    78    76    1
    53    45    46    2
    54    45    52   am
    55    12    14    1
    56    12    13    1
    57   205   207   ar
    58   207   208    1
    59    52    53    1
    60   191   194    1
    61   191   190    1
    62   194   195    1
    63    76    77    1
    64    76    73    1
    65    90    89    1
    66   195   196    1
    67    13    15    1
    68   113   112    2
    69    72    73    1
    70   183   182    2
    71   190   182   am
    72   190   196    1
    73   112   111    1
    74    73    74    1
    75    57    56    1
    76   182   181    1
    77    53    56    1
    78    53    54    1
    79   184   181    1
    80   184   185    1
    81    55    54    2
    82    89    88   ar
    83    89    87   ar
    84    88    86   ar
    85    54    58   am
    86   111   110    1
    87   181   180    1
    88   185   187   ar
    89   185   186   ar
    90    74    75    2
    91    64    62    1
    92   187   189   ar
    93   180   174   am
    94    87    85   ar
    95    58    59    1
    96   110   105   am
    97    86    84   ar
    98   186   188   ar
    99   189   188   ar
   100   178   177    1
   101   174   173    1
   102   174   175    2
   103     3     2    1
   104     3     4    2
   105    62    59    1
   106    62    63    1
   107   173   176    1
   108   173   172    1
   109    59    60    1
   110    85    84   ar
   111     2     5    1
   112     2     1    1
   113   176   177    1
   114     5     6    1
   115    84    83    1
   116   105   106    2
   117   105   104    1
   118   177   179    1
   119     6     7    1
   120     1     7    1
   121   108   107    1
   122    60    61    2
   123    79    80    1
   124   104   107    1
   125   104   103    1
   126    83    80    1
   127    94    93    2
   128    80    81    1
   129   107   109    1
   130   170   171   ar
   131   170   168   ar
   132   136   137    1
   133   136   133    1
   134   103    93   am
   135   137   138    1
   136    93    92    1
   137   148   146   ar
   138   148   149   ar
   139   171   169   ar
   140   146   144   ar
   141   168   165   ar
   142    95    92    1
   143    95    96    1
   144    81    82    2
   145    92    91    1
   146   149   147   ar
   147   133   134    1
   148   133   132    1
   149   134   135    2
   150   139   140    1
   151   138   132    1
   152   169   167   ar
   153    97    96   ar
   154    97    99   ar
   155    96    98   ar
   156   142   141    2
   157   144   143    1
   158   144   145   ar
   159   165   167   ar
   160   165   163   ar
   161   143   140    1
   162   132   125   am
   163   161   160    2
   164   167   166   ar
   165   140   141    1
   166   147   145   ar
   167   141   150   am
   168    99   101   ar
   169    98   100   ar
   170   162   163    1
   171   162   159    1
   172   163   164   ar
   173    65    66    1
   174   131   129   ar
   175    70    69    1
   176   160   159    1
   177   125   126    2
   178   125   124    1
   179   166   164   ar
   180   158   159    1
   181   158   152   am
   182    66    69    1
   183    66    67    1
   184   101   100   ar
   185   101   102    1
   186    69    71    1
   187   150   151    1
   188   156   155    1
   189   151   152    1
   190   151   154    1
   191   129   130   ar
   192   129   128    1
   193   124   127    1
   194   124   123    1
   195   127   128    1
   196   152   153    2
   197   157   155    1
   198    67    68    2
   199   155   154    1
   200   117   116    2
   201   123   116   am
   202   116   115    1
   203   118   115    1
   204   118   119    1
   205   115   114    1
   206   120   119    1
   207   120   121    1
   208   122   121    1
