@<TRIPOS>MOLECULE
tmp/3dooA00.pdb
 106 99 0 0 0
SMALL
GASTEIGER

@<TRIPOS>ATOM
      1  N         28.7970   -1.2730   27.8920 N.3     5  VAL5       -0.1245
      2  CA        27.6370   -2.0490   27.5570 C.3     5  VAL5        0.1561
      3  C         27.4140   -3.1040   28.6850 C.2     5  VAL5        0.2260
      4  O         28.3330   -3.7840   29.1540 O.2     5  VAL5       -0.2867
      5  CB        27.7620   -2.6460   26.1160 C.3     5  VAL5        0.0252
      6  CG1       28.9380   -3.6600   26.0260 C.3     5  VAL5        0.0019
      7  CG2       26.4100   -3.2220   25.6630 C.3     5  VAL5        0.0019
      8  N         29.6230   -8.9040   22.1020 N.3    13  SER13      -0.1202
      9  CA        29.2380   -7.5550   21.7550 C.3    13  SER13       0.2020
     10  C         30.3110   -6.8940   20.8820 C.2    13  SER13       0.2619
     11  O         31.5040   -6.9880   21.1910 O.2    13  SER13      -0.2717
     12  CB        28.9010   -6.7150   22.9780 C.3    13  SER13       0.2103
     13  OG        28.5590   -5.4070   22.5220 O.3    13  SER13      -0.2182
     14  N         29.8790   -6.2630   19.7730 N.am   14  LEU14      -0.1965
     15  CA        30.8650   -5.4880   19.0110 C.3    14  LEU14       0.1728
     16  C         30.8100   -3.9590   19.3140 C.2    14  LEU14       0.2616
     17  O         31.4330   -3.1790   18.6170 O.2    14  LEU14      -0.2715
     18  CB        30.7690   -5.7590   17.5090 C.3    14  LEU14       0.0311
     19  CG        30.7020   -7.1270   16.8120 C.3    14  LEU14       0.0022
     20  CD1       30.6450   -6.7640   15.4100 C.3    14  LEU14       0.0001
     21  CD2       31.8770   -8.1310   17.0420 C.3    14  LEU14       0.0001
     22  N         30.0080   -3.5550   20.3160 N.am   15  SER15      -0.1950
     23  CA        29.9640   -2.1640   20.8310 C.3    15  SER15       0.1924
     24  C         31.3390   -1.5980   21.2240 C.2    15  SER15       0.2314
     25  O         31.6370   -0.5430   20.7420 O.2    15  SER15      -0.2863
     26  CB        28.9560   -2.0120   21.9600 C.3    15  SER15       0.2116
     27  OG        27.6640   -1.8710   21.4300 O.3    15  SER15      -0.2180
     28  N         25.3080    1.5130   27.0960 N.3    58  ASN58      -0.1225
     29  CA        24.2890    0.6640   26.3990 C.3    58  ASN58       0.1785
     30  C         23.8520   -0.5850   27.2160 C.2    58  ASN58       0.2597
     31  O         24.5810   -1.0810   28.1580 O.2    58  ASN58      -0.2718
     32  CB        24.7640    0.2400   24.9880 C.3    58  ASN58       0.1169
     33  CG        24.7810    1.3990   23.9930 C.2    58  ASN58       0.2627
     34  OD1       25.8260    1.7080   23.4530 O.2    58  ASN58      -0.2716
     35  ND2       23.6190    1.9710   23.6900 N.am   58  ASN58      -0.0877
     36  N         22.6280   -1.0110   26.9040 N.am   59  VAL59      -0.1966
     37  CA        21.9220   -2.1040   27.6080 C.3    59  VAL59       0.1727
     38  C         21.4390   -3.1040   26.5430 C.2    59  VAL59       0.2616
     39  O         20.8650   -2.7140   25.5040 O.2    59  VAL59      -0.2715
     40  CB        20.8070   -1.5990   28.5230 C.3    59  VAL59       0.0290
     41  CG1       20.3150   -2.6400   29.4290 C.3    59  VAL59       0.0023
     42  CG2       21.3390   -0.4980   29.4100 C.3    59  VAL59       0.0023
     43  N         21.7810   -4.3850   26.7010 N.am   60  THR60      -0.1951
     44  CA        21.3980   -5.3510   25.6830 C.3    60  THR60       0.1897
     45  C         20.7930   -6.5510   26.3740 C.2    60  THR60       0.2313
     46  O         20.5590   -6.5230   27.5460 O.2    60  THR60      -0.2863
     47  CB        22.6010   -5.6170   24.7220 C.3    60  THR60       0.1794
     48  OG1       22.1360   -6.4530   23.6370 O.3    60  THR60      -0.2208
     49  CG2       23.7900   -6.3510   25.4510 C.3    60  THR60       0.0378
     50  N         17.1020   -4.9550   28.8270 N.3    64  LYS64      -0.1245
     51  CA        16.5490   -3.7460   28.1510 C.3    64  LYS64       0.1561
     52  C         15.2560   -3.2810   28.7800 C.2    64  LYS64       0.2260
     53  O         14.9860   -2.0820   28.8380 O.2    64  LYS64      -0.2867
     54  CB        16.3250   -4.0420   26.6680 C.3    64  LYS64       0.0271
     55  CG        17.5730   -4.0940   25.7820 C.3    64  LYS64       0.0035
     56  CD        17.2550   -3.7820   24.2670 C.3    64  LYS64       0.0206
     57  CE        18.5260   -3.5180   23.3980 C.3    64  LYS64       0.1093
     58  NZ        18.1180   -3.4620   21.9380 N.3    64  LYS64      -0.1314
     59  N         17.8500    1.0710   25.7460 N.3    85  ASN85      -0.1240
     60  CA        19.1790    0.6080   25.2910 C.3    85  ASN85       0.1653
     61  C         20.2640    1.5580   25.5880 C.2    85  ASN85       0.2266
     62  O         21.3770    1.3280   25.2200 O.2    85  ASN85      -0.2867
     63  CB        19.2360    0.2160   23.7840 C.3    85  ASN85       0.1155
     64  CG        19.4730    1.3880   22.8500 C.2    85  ASN85       0.2627
     65  OD1       18.8580    2.4380   22.9860 O.2    85  ASN85      -0.2716
     66  ND2       20.3420    1.1850   21.8190 N.am   85  ASN85      -0.0877
     67  N         17.5770    2.4030   19.2280 N.3   100  ASP100     -0.1239
     68  CA        17.5170    1.3960   18.1230 C.3   100  ASP100      0.1674
     69  C         16.7400    1.9460   16.9400 C.2   100  ASP100      0.2266
     70  O         17.2240    1.9210   15.8400 O.2   100  ASP100     -0.2867
     71  CB        16.9440    0.0550   18.5930 C.3   100  ASP100      0.1410
     72  CG        17.7730   -0.6060   19.6820 C.2   100  ASP100      0.3668
     73  OD1       18.9510   -0.8020   19.4750 O.co2 100  ASP100     -0.2456
     74  OD2       17.2330   -1.0540   20.6950 O.co2 100  ASP100     -0.2456
     75  N         21.0730   -8.6970   10.6750 N.3   202  TYR202     -0.1241
     76  CA        22.2660   -8.7100    9.8340 C.3   202  TYR202      0.1605
     77  C         23.0930   -9.9610   10.2020 C.2   202  TYR202      0.2264
     78  O         24.1150  -10.2270    9.6090 O.2   202  TYR202     -0.2867
     79  CB        23.0850   -7.4250   10.0390 C.3   202  TYR202      0.0534
     80  CG        23.5920   -7.2230   11.4600 C.ar  202  TYR202     -0.0201
     81  CD1       24.9060   -7.5190   11.7870 C.ar  202  TYR202     -0.0009
     82  CD2       22.7470   -6.7850   12.4840 C.ar  202  TYR202     -0.0009
     83  CE1       25.3850   -7.3570   13.0980 C.ar  202  TYR202      0.0417
     84  CE2       23.2300   -6.6330   13.8180 C.ar  202  TYR202      0.0417
     85  CZ        24.5540   -6.9250   14.0940 C.ar  202  TYR202      0.1957
     86  OH        25.0730   -6.7970   15.3850 O.3   202  TYR202     -0.2866
     87  N         22.7860   -1.1500   13.6920 N.3   227  PHE227     -0.1241
     88  CA        23.6690   -1.4120   14.8360 C.3   227  PHE227      0.1605
     89  C         24.6960   -0.3100   14.9840 C.2   227  PHE227      0.2264
     90  O         25.0460    0.0630   16.0720 O.2   227  PHE227     -0.2867
     91  CB        24.3650   -2.7680   14.7340 C.3   227  PHE227      0.0534
     92  CG        25.3520   -3.0100   15.8310 C.ar  227  PHE227     -0.0203
     93  CD1       24.9250   -3.4130   17.0980 C.ar  227  PHE227     -0.0042
     94  CD2       26.7310   -2.8320   15.5920 C.ar  227  PHE227     -0.0042
     95  CE1       25.8860   -3.6210   18.1220 C.ar  227  PHE227     -0.0003
     96  CE2       27.6720   -2.9980   16.5850 C.ar  227  PHE227     -0.0003
     97  CZ        27.2700   -3.3900   17.8640 C.ar  227  PHE227     -0.0000
     98  N         22.5820    3.0650   15.9490 N.3   230  GLN230     -0.1245
     99  CA        22.0220    3.1410   17.3080 C.3   230  GLN230      0.1566
    100  C         23.0890    3.4880   18.3300 C.2   230  GLN230      0.2260
    101  O         22.7520    4.0220   19.3780 O.2   230  GLN230     -0.2867
    102  CB        21.3190    1.8790   17.7200 C.3   230  GLN230      0.0367
    103  CG        22.1550    0.6020   17.8670 C.3   230  GLN230      0.0905
    104  CD        22.8880    0.4270   19.1420 C.2   230  GLN230      0.2608
    105  OE1       22.4880    0.9180   20.1780 O.2   230  GLN230     -0.2717
    106  NE2       24.0130   -0.2790   19.0830 N.am  230  GLN230     -0.0878
@<TRIPOS>BOND
     1    78    77    2
     2    76    79    1
     3    76    77    1
     4    76    75    1
     5    79    80    1
     6    80    81   ar
     7    80    82   ar
     8    81    83   ar
     9    82    84   ar
    10    83    85   ar
    11    87    88    1
    12    84    85   ar
    13    85    86    1
    14    91    88    1
    15    91    92    1
    16    88    89    1
    17    89    90    2
    18    20    19    1
    19    94    92   ar
    20    94    96   ar
    21    92    93   ar
    22    70    69    2
    23    98    99    1
    24    96    97   ar
    25    19    21    1
    26    19    18    1
    27    69    68    1
    28    93    95   ar
    29    99   102    1
    30    99   100    1
    31    18    15    1
    32   102   103    1
    33    97    95   ar
    34   103   104    1
    35    68    71    1
    36    68    67    1
    37   100   101    2
    38    71    72    1
    39    17    16    2
    40    15    16    1
    41    15    14    1
    42   106   104   am
    43   104   105    2
    44    16    22   am
    45    73    72   ar
    46    72    74   ar
    47    14    10   am
    48    22    23    1
    49    25    24    2
    50    23    24    1
    51    23    26    1
    52    10    11    2
    53    10     9    1
    54    27    26    1
    55     9     8    1
    56     9    12    1
    57    66    64   am
    58    58    57    1
    59    13    12    1
    60    64    65    2
    61    64    63    1
    62    57    56    1
    63    34    33    2
    64    48    47    1
    65    35    33   am
    66    63    60    1
    67    33    32    1
    68    56    55    1
    69    47    49    1
    70    47    44    1
    71    32    29    1
    72    62    61    2
    73    60    61    1
    74    60    59    1
    75    39    38    2
    76     7     5    1
    77    44    45    1
    78    44    43    1
    79    55    54    1
    80     6     5    1
    81     5     2    1
    82    45    46    2
    83    29    28    1
    84    29    30    1
    85    38    43   am
    86    38    37    1
    87    54    51    1
    88    36    30   am
    89    36    37    1
    90    30    31    2
    91     2     1    1
    92     2     3    1
    93    37    40    1
    94    51    52    1
    95    51    50    1
    96    40    42    1
    97    40    41    1
    98     3     4    2
    99    52    53    2
