@<TRIPOS>MOLECULE
tmp/3douA00.pdb
 183 177 0 0 0
SMALL
GASTEIGER

@<TRIPOS>ATOM
      1  N         27.3410   18.9560   20.2660 N.3     1  GLN1       -0.1245
      2  CA        26.1330   19.4760   19.5440 C.3     1  GLN1        0.1566
      3  C         25.0670   19.9930   20.5130 C.2     1  GLN1        0.2260
      4  O         24.0340   20.5430   20.0880 O.2     1  GLN1       -0.2867
      5  CB        25.5420   18.3820   18.6460 C.3     1  GLN1        0.0367
      6  CG        26.4340   17.9460   17.4790 C.3     1  GLN1        0.0905
      7  CD        26.5860   19.0190   16.4110 C.2     1  GLN1        0.2608
      8  OE1       25.7180   19.8910   16.2410 O.2     1  GLN1       -0.2717
      9  NE2       27.6920   18.9530   15.6720 N.am    1  GLN1       -0.0878
     10  N         23.9920   23.5910   19.8770 N.3     4  SER4       -0.1217
     11  CA        23.5370   23.9960   18.5490 C.3     4  SER4        0.1889
     12  C         22.1750   24.6890   18.5930 C.2     4  SER4        0.2288
     13  O         21.4260   24.5580   19.5610 O.2     4  SER4       -0.2866
     14  CB        23.4720   22.7990   17.6110 C.3     4  SER4        0.2089
     15  OG        22.3160   22.0190   17.8850 O.3     4  SER4       -0.2183
     16  N         19.5780   23.9950   16.8500 N.3     6  ALA6       -0.1245
     17  CA        18.5730   22.9480   16.8510 C.3     6  ALA6        0.1562
     18  C         18.3810   22.3710   18.2580 C.2     6  ALA6        0.2260
     19  O         17.2490   22.2020   18.7200 O.2     6  ALA6       -0.2867
     20  CB        18.9330   21.8690   15.8620 C.3     6  ALA6        0.0290
     21  N         13.6950    9.0560   16.3450 N.3    28  GLU28      -0.1231
     22  CA        14.0790   10.4010   15.9580 C.3    28  GLU28       0.1699
     23  C         14.4150   10.4270   14.4780 C.2    28  GLU28       0.2592
     24  O         15.3300    9.7290   14.0500 O.2    28  GLU28      -0.2718
     25  CB        15.3010   10.8440   16.7640 C.3    28  GLU28       0.0402
     26  CG        15.7470   12.2240   16.3010 C.3    28  GLU28       0.1161
     27  CD        17.1200   12.6360   16.7660 C.2    28  GLU28       0.3649
     28  OE1       17.8970   11.7710   17.2550 O.co2  28  GLU28      -0.2457
     29  OE2       17.4200   13.8360   16.6010 O.co2  28  GLU28      -0.2457
     30  N         13.6640   11.1910   13.7010 N.am   29  ILE29      -0.1966
     31  CA        13.8370   11.2570   12.2370 C.3    29  ILE29       0.1727
     32  C         14.5540   12.5500   11.8520 C.2    29  ILE29       0.2617
     33  O         14.1610   13.6330   12.2850 O.2    29  ILE29      -0.2715
     34  CB        12.4860   11.1320   11.5230 C.3    29  ILE29       0.0290
     35  CG1       11.9190    9.7300   11.8110 C.3    29  ILE29       0.0022
     36  CG2       12.6420   11.3530   10.0150 C.3    29  ILE29       0.0023
     37  CD1       10.4610    9.5570   11.4990 C.3    29  ILE29       0.0001
     38  N         15.6430   12.4390   11.0840 N.am   30  GLY30      -0.1940
     39  CA        16.4240   13.6280   10.7390 C.3    30  GLY30       0.2014
     40  C         17.3940   14.0130   11.8500 C.2    30  GLY30       0.2640
     41  O         17.4330   15.1560   12.2830 O.2    30  GLY30      -0.2714
     42  N         18.1920   13.0470   12.2870 N.am   31  SER31      -0.1935
     43  CA        19.0160   13.2230   13.4760 C.3    31  SER31       0.2055
     44  C         20.3670   13.8960   13.2880 C.2    31  SER31       0.2644
     45  O         20.9320   14.3980   14.2480 O.2    31  SER31      -0.2714
     46  CB        19.2770   11.8570   14.1080 C.3    31  SER31       0.2130
     47  OG        19.9280   10.9950   13.1760 O.3    31  SER31      -0.2179
     48  N         20.8900   13.9260   12.0650 N.am   32  SER32      -0.1936
     49  CA        22.2640   14.3910   11.8920 C.3    32  SER32       0.2040
     50  C         22.3630   15.9080   11.9040 C.2    32  SER32       0.2485
     51  O         21.4950   16.5870   11.3610 O.2    32  SER32      -0.2729
     52  CB        22.8550   13.8210   10.6130 C.3    32  SER32       0.2129
     53  OG        22.7920   12.4070   10.6510 O.3    32  SER32      -0.2179
     54  N         23.4310   16.4540   12.5340 N.am   33  PRO33      -0.2715
     55  CA        24.5840   15.8380   13.1960 C.3    33  PRO33       0.1536
     56  C         24.4020   15.3500   14.6220 C.2    33  PRO33       0.2599
     57  O         25.2970   14.6960   15.1250 O.2    33  PRO33      -0.2715
     58  CB        25.6460   16.9600   13.1580 C.3    33  PRO33       0.0310
     59  CG        24.8280   18.2160   13.2700 C.3    33  PRO33       0.0237
     60  CD        23.5550   17.9320   12.4890 C.3    33  PRO33       0.0939
     61  N         23.2860   15.6680   15.2820 N.am   34  GLY34      -0.1941
     62  CA        23.0630   15.0820   16.6080 C.3    34  GLY34       0.2014
     63  C         22.7010   16.0000   17.7540 C.2    34  GLY34       0.2639
     64  O         22.7510   15.5850   18.9000 O.2    34  GLY34      -0.2714
     65  N         22.3420   17.2540   17.4660 N.am   35  GLY35      -0.1939
     66  CA        21.9090   18.1710   18.5310 C.3    35  GLY35       0.2014
     67  C         20.6820   17.7080   19.3070 C.2    35  GLY35       0.2638
     68  O         20.7010   17.6340   20.5390 O.2    35  GLY35      -0.2714
     69  N         19.6010   17.4050   18.5870 N.am   36  TRP36      -0.1973
     70  CA        18.4410   16.8390   19.2750 C.3    36  TRP36       0.1640
     71  C         18.7980   15.5310   19.9530 C.2    36  TRP36       0.2290
     72  O         18.3450   15.2620   21.0570 O.2    36  TRP36      -0.2864
     73  CB        17.2760   16.5960   18.3230 C.3    36  TRP36       0.0576
     74  CG        16.4800   17.8140   17.9650 C.ar   36  TRP36       0.0006
     75  CD1       16.8940   19.1260   17.9850 C.ar   36  TRP36       0.0946
     76  CD2       15.1250   17.8290   17.5230 C.ar   36  TRP36       0.0152
     77  NE1       15.8780   19.9480   17.5790 N.ar   36  TRP36      -0.2442
     78  CE2       14.7770   19.1770   17.2870 C.ar   36  TRP36       0.0810
     79  CE3       14.1640   16.8250   17.2990 C.ar   36  TRP36       0.0012
     80  CZ2       13.4960   19.5540   16.8510 C.ar   36  TRP36       0.0191
     81  CZ3       12.9060   17.1930   16.8540 C.ar   36  TRP36       0.0001
     82  CH2       12.5860   18.5470   16.6320 C.ar   36  TRP36       0.0015
     83  N         17.4500    8.2580   12.8510 N.3    50  ILE50      -0.1231
     84  CA        17.4390    7.9370   11.4250 C.3    50  ILE50       0.1692
     85  C         17.8530    9.1690   10.6170 C.2    50  ILE50       0.2592
     86  O         17.3030   10.2590   10.8350 O.2    50  ILE50      -0.2718
     87  CB        16.0230    7.5110   10.9610 C.3    50  ILE50       0.0266
     88  CG1       15.5710    6.2660   11.7600 C.3    50  ILE50       0.0019
     89  CG2       16.0440    7.1930    9.4560 C.3    50  ILE50       0.0020
     90  CD1       14.0910    5.9310   11.6980 C.3    50  ILE50       0.0001
     91  N         18.7760    9.0070    9.6720 N.am   51  ASP51      -0.1960
     92  CA        19.1140   10.1190    8.7940 C.3    51  ASP51       0.1840
     93  C         19.6970    9.6050    7.4950 C.2    51  ASP51       0.2622
     94  O         20.2070    8.4930    7.4400 O.2    51  ASP51      -0.2715
     95  CB        20.1420   11.0410    9.4750 C.3    51  ASP51       0.1450
     96  CG        20.1500   12.4470    8.9000 C.2    51  ASP51       0.3671
     97  OD1       20.6800   12.6870    7.7980 O.co2  51  ASP51      -0.2456
     98  OD2       19.6090   13.3420    9.5540 O.co2  51  ASP51      -0.2456
     99  N         19.6180   10.4330    6.4540 N.am   52  LEU52      -0.1963
    100  CA        20.3210   10.1390    5.1950 C.3    52  LEU52       0.1728
    101  C         21.8380   10.1800    5.3470 C.2    52  LEU52       0.2616
    102  O         22.5530    9.4530    4.6340 O.2    52  LEU52      -0.2715
    103  CB        19.9480   11.1680    4.1260 C.3    52  LEU52       0.0311
    104  CG        18.5250   11.1920    3.6010 C.3    52  LEU52       0.0022
    105  CD1       18.2710   12.4920    2.8400 C.3    52  LEU52       0.0001
    106  CD2       18.3080   10.0180    2.7010 C.3    52  LEU52       0.0001
    107  N         22.3100   11.0460    6.2340 N.am   53  GLN53      -0.1977
    108  CA        23.7280   11.3510    6.3930 C.3    53  GLN53       0.1601
    109  C         24.2900   10.6850    7.6300 C.2    53  GLN53       0.2287
    110  O         23.5840   10.5230    8.6110 O.2    53  GLN53      -0.2864
    111  CB        23.9130   12.8670    6.5390 C.3    53  GLN53       0.0394
    112  CG        23.3030   13.6840    5.4090 C.3    53  GLN53       0.0908
    113  CD        23.4540   15.1880    5.5970 C.2    53  GLN53       0.2608
    114  OE1       24.1020   15.8550    4.7910 O.2    53  GLN53      -0.2717
    115  NE2       22.8550   15.7280    6.6610 N.am   53  GLN53      -0.0878
    116  N         19.2250    5.7930    6.5350 N.3    65  CYS65      -0.1221
    117  CA        18.0740    5.3590    5.7770 C.3    65  CYS65       0.1808
    118  C         17.3580    6.5630    5.1840 C.2    65  CYS65       0.2601
    119  O         17.3060    7.6200    5.8340 O.2    65  CYS65      -0.2717
    120  CB        17.1120    4.6090    6.6900 C.3    65  CYS65       0.0970
    121  SG        15.7200    3.9230    5.7620 S.3    65  CYS65      -0.0800
    122  N         16.8120    6.4110    3.9710 N.am   66  ASP66      -0.1959
    123  CA        15.9180    7.4240    3.4260 C.3    66  ASP66       0.1840
    124  C         14.5200    6.9830    3.8230 C.2    66  ASP66       0.2622
    125  O         14.0550    5.9230    3.3970 O.2    66  ASP66      -0.2715
    126  CB        16.0490    7.4650    1.8920 C.3    66  ASP66       0.1450
    127  CG        15.1480    8.5060    1.2300 C.2    66  ASP66       0.3671
    128  OD1       14.1300    8.9300    1.8100 O.co2  66  ASP66      -0.2456
    129  OD2       15.4710    8.9040    0.0890 O.co2  66  ASP66      -0.2456
    130  N         13.8150    7.7930    4.6140 N.am   67  ILE67      -0.1963
    131  CA        12.4870    7.3740    5.0800 C.3    67  ILE67       0.1727
    132  C         11.4730    7.1260    3.9590 C.2    67  ILE67       0.2616
    133  O         10.4820    6.4620    4.1890 O.2    67  ILE67      -0.2715
    134  CB        11.8850    8.3650    6.1210 C.3    67  ILE67       0.0290
    135  CG1       11.6020    9.7590    5.4950 C.3    67  ILE67       0.0022
    136  CG2       12.7980    8.4620    7.3610 C.3    67  ILE67       0.0023
    137  CD1       10.7510   10.7020    6.3800 C.3    67  ILE67       0.0001
    138  N         11.7140    7.6760    2.7770 N.am   68  PHE68      -0.1974
    139  CA        10.7650    7.5150    1.6620 C.3    68  PHE68       0.1639
    140  C         10.9730    6.2010    0.9080 C.2    68  PHE68       0.2290
    141  O         10.1240    5.8060    0.0950 O.2    68  PHE68      -0.2864
    142  CB        10.9120    8.6690    0.6710 C.3    68  PHE68       0.0560
    143  CG        10.4330    9.9890    1.2010 C.ar   68  PHE68      -0.0200
    144  CD1        9.0890   10.1850    1.4930 C.ar   68  PHE68      -0.0042
    145  CD2       11.3250   11.0280    1.3910 C.ar   68  PHE68      -0.0042
    146  CE1        8.6530   11.4100    1.9820 C.ar   68  PHE68      -0.0003
    147  CE2       10.8880   12.2570    1.8810 C.ar   68  PHE68      -0.0003
    148  CZ         9.5420   12.4400    2.1610 C.ar   68  PHE68      -0.0000
    149  N         12.9750   16.3670   13.0540 N.3    94  ASP94      -0.1225
    150  CA        13.5020   17.6610   12.6280 C.3    94  ASP94       0.1805
    151  C         13.9480   17.5410   11.1740 C.2    94  ASP94       0.2597
    152  O         14.7310   18.3700   10.7000 O.2    94  ASP94      -0.2718
    153  CB        14.6780   18.0420   13.5170 C.3    94  ASP94       0.1424
    154  CG        14.9990   19.5210   13.4760 C.2    94  ASP94       0.3668
    155  OD1       14.0820   20.3420   13.2470 O.co2  94  ASP94      -0.2456
    156  OD2       16.1810   19.8590   13.7080 O.co2  94  ASP94      -0.2456
    157  N         13.4540   16.5270   10.4650 N.am   95  ALA95      -0.1979
    158  CA        13.8920   16.2750    9.0780 C.3    95  ALA95       0.1597
    159  C         13.4220   17.3770    8.1410 C.2    95  ALA95       0.2287
    160  O         12.2830   17.8430    8.2140 O.2    95  ALA95      -0.2864
    161  CB        13.3630   14.9450    8.5910 C.3    95  ALA95       0.0319
    162  N         14.6950   18.7200    3.8460 N.3    96  ALA96      -0.1245
    163  CA        15.6380   18.6310    2.7390 C.3    96  ALA96       0.1562
    164  C         16.2820   19.9870    2.5290 C.2    96  ALA96       0.2260
    165  O         16.1630   20.8560    3.3670 O.2    96  ALA96      -0.2867
    166  CB        14.9410   18.1560    1.4870 C.3    96  ALA96       0.0290
    167  N          7.5460   15.2140    3.8160 N.3   112  ILE112     -0.1245
    168  CA         8.2650   14.5970    4.9240 C.3   112  ILE112      0.1561
    169  C          7.2980   14.3310    6.0930 C.2   112  ILE112      0.2260
    170  O          7.3090   13.2470    6.6870 O.2   112  ILE112     -0.2867
    171  CB         9.4560   15.4800    5.3690 C.3   112  ILE112      0.0252
    172  CG1       10.5390   15.4760    4.2630 C.3   112  ILE112      0.0019
    173  CG2        9.9870   15.0480    6.7690 C.3   112  ILE112      0.0019
    174  CD1       11.6630   16.4880    4.4510 C.3   112  ILE112      0.0001
    175  N          8.8090   19.0310   12.8390 N.3   132  LYS132     -0.1245
    176  CA         9.0690   20.3120   12.2000 C.3   132  LYS132      0.1561
    177  C          8.2790   20.3750   10.8880 C.2   132  LYS132      0.2260
    178  O          8.2580   19.4060   10.1030 O.2   132  LYS132     -0.2867
    179  CB        10.5630   20.4760   11.8900 C.3   132  LYS132      0.0271
    180  CG        10.8570   21.8500   11.2840 C.3   132  LYS132      0.0035
    181  CD        12.3030   22.2260   11.2980 C.3   132  LYS132      0.0206
    182  CE        13.0660   21.4150   10.2960 C.3   132  LYS132      0.1093
    183  NZ        14.5170   21.5410   10.6400 N.3   132  LYS132     -0.1314
@<TRIPOS>BOND
     1   129   127   ar
     2   141   140    2
     3   142   143    1
     4   142   139    1
     5   140   139    1
     6   143   145   ar
     7   143   144   ar
     8   127   128   ar
     9   127   126    1
    10   145   147   ar
    11   166   163    1
    12   144   146   ar
    13   139   138    1
    14   147   148   ar
    15   126   123    1
    16   146   148   ar
    17   164   163    1
    18   164   165    2
    19   106   104    1
    20   163   162    1
    21   138   132   am
    22   105   104    1
    23   125   124    2
    24   123   124    1
    25   123   122    1
    26   104   103    1
    27   167   168    1
    28   124   130   am
    29   132   133    2
    30   132   131    1
    31   122   118   am
    32   103   100    1
    33   172   174    1
    34   172   171    1
    35   130   131    1
    36   102   101    2
    37   114   113    2
    38   168   171    1
    39   168   169    1
    40   131   134    1
    41   118   117    1
    42   118   119    2
    43   100   101    1
    44   100    99    1
    45   101   107   am
    46   171   173    1
    47   112   113    1
    48   112   111    1
    49   135   134    1
    50   135   137    1
    51   113   115   am
    52   121   120    1
    53   117   116    1
    54   117   120    1
    55   169   170    2
    56   134   136    1
    57   107   108    1
    58   108   111    1
    59   108   109    1
    60    99    93   am
    61    94    93    2
    62    93    92    1
    63   109   110    2
    64    97    96   ar
    65   159   160    2
    66   159   158    1
    67   161   158    1
    68    92    95    1
    69    92    91    1
    70    96    95    1
    71    96    98   ar
    72   158   157    1
    73    89    87    1
    74    91    85   am
    75    36    34    1
    76   178   177    2
    77   182   183    1
    78   182   181    1
    79   157   151   am
    80    52    53    1
    81    52    49    1
    82    85    86    2
    83    85    84    1
    84   152   151    2
    85    39    38    1
    86    39    40    1
    87   177   176    1
    88    87    84    1
    89    87    88    1
    90    38    32   am
    91   151   150    1
    92   180   181    1
    93   180   179    1
    94    51    50    2
    95    84    83    1
    96    37    35    1
    97    34    35    1
    98    34    31    1
    99    90    88    1
   100    40    41    2
   101    40    42   am
   102    32    31    1
   103    32    33    2
   104   179   176    1
   105    49    50    1
   106    49    48    1
   107    50    54   am
   108    48    44   am
   109   176   175    1
   110    31    30    1
   111    42    43    1
   112    60    54    1
   113    60    59    1
   114    54    55    1
   115   150   149    1
   116   150   153    1
   117    58    55    1
   118    58    59    1
   119    47    46    1
   120    55    56    1
   121   155   154   ar
   122    44    43    1
   123    44    45    2
   124    43    46    1
   125   154   153    1
   126   154   156   ar
   127    30    23   am
   128    24    23    2
   129    23    22    1
   130    56    57    2
   131    56    61   am
   132    61    62    1
   133     9     7   am
   134    20    17    1
   135    22    21    1
   136    22    25    1
   137     8     7    2
   138    26    25    1
   139    26    27    1
   140     7     6    1
   141    29    27   ar
   142    62    63    1
   143    82    80   ar
   144    82    81   ar
   145    27    28   ar
   146    16    17    1
   147    80    78   ar
   148    17    18    1
   149    81    79   ar
   150    78    76   ar
   151    78    77   ar
   152    79    76   ar
   153    65    63   am
   154    65    66    1
   155     6     5    1
   156    76    74   ar
   157    77    75   ar
   158    14    15    1
   159    14    11    1
   160    63    64    2
   161    74    75   ar
   162    74    73    1
   163    18    19    2
   164    73    70    1
   165    66    67    1
   166    11    12    1
   167    11    10    1
   168    69    70    1
   169    69    67   am
   170    12    13    2
   171     5     2    1
   172    70    71    1
   173    67    68    2
   174     2     1    1
   175     2     3    1
   176    71    72    2
   177     4     3    2
