@<TRIPOS>MOLECULE
tmp/3dowA00.pdb
 171 165 0 0 0
SMALL
GASTEIGER

@<TRIPOS>ATOM
      1  N        -14.0550   12.7080   28.8220 N.3    19  GLU19      -0.1245
      2  CA       -12.9670   12.1490   29.6140 C.3    19  GLU19       0.1567
      3  C        -12.5810   13.0990   30.7460 C.2    19  GLU19       0.2260
      4  O        -12.1970   12.6670   31.8290 O.2    19  GLU19      -0.2867
      5  CB       -11.7460   11.8750   28.7420 C.3    19  GLU19       0.0388
      6  CG       -10.6770   11.0780   29.4430 C.3    19  GLU19       0.1160
      7  CD        -9.3720   11.0920   28.6800 C.2    19  GLU19       0.3649
      8  OE1       -9.3400   11.6870   27.5820 O.co2  19  GLU19      -0.2457
      9  OE2       -8.3810   10.5170   29.1750 O.co2  19  GLU19      -0.2457
     10  N        -12.7060   12.4060   34.7480 N.3    23  ILE23      -0.1245
     11  CA       -11.4520   12.3910   35.4920 C.3    23  ILE23       0.1561
     12  C        -11.4850   13.4470   36.5860 C.2    23  ILE23       0.2260
     13  O        -10.7780   13.3440   37.5840 O.2    23  ILE23      -0.2867
     14  CB       -10.2350   12.6330   34.5730 C.3    23  ILE23       0.0252
     15  CG1       -9.0540   11.7650   35.0090 C.3    23  ILE23       0.0019
     16  CG2       -9.8420   14.1030   34.5570 C.3    23  ILE23       0.0019
     17  CD1       -9.1960   10.3060   34.6270 C.3    23  ILE23       0.0001
     18  N        -11.0190   11.9940   40.3190 N.3    27  TYR27      -0.1241
     19  CA        -9.8690   12.4480   41.0890 C.3    27  TYR27       0.1605
     20  C         -9.9670   13.9530   41.3140 C.2    27  TYR27       0.2264
     21  O         -9.1740   14.7200   40.7710 O.2    27  TYR27      -0.2867
     22  CB        -8.5680   12.1190   40.3540 C.3    27  TYR27       0.0534
     23  CG        -8.4020   10.6590   39.9860 C.ar   27  TYR27      -0.0201
     24  CD1       -7.8580    9.7480   40.8870 C.ar   27  TYR27      -0.0009
     25  CD2       -8.7740   10.1940   38.7320 C.ar   27  TYR27      -0.0009
     26  CE1       -7.7000    8.4120   40.5480 C.ar   27  TYR27       0.0417
     27  CE2       -8.6190    8.8630   38.3850 C.ar   27  TYR27       0.0417
     28  CZ        -8.0830    7.9770   39.2950 C.ar   27  TYR27       0.1957
     29  OH        -7.9310    6.6540   38.9460 O.3    27  TYR27      -0.2866
     30  N         -7.0520   16.3660   42.1780 N.3    30  ARG30      -0.1245
     31  CA        -6.0600   16.5580   41.1200 C.3    30  ARG30       0.1563
     32  C         -6.6730   17.3020   39.9380 C.2    30  ARG30       0.2260
     33  O         -7.8790   17.2380   39.7170 O.2    30  ARG30      -0.2867
     34  CB        -5.5480   15.2050   40.6220 C.3    30  ARG30       0.0307
     35  CG        -5.0290   14.2720   41.7040 C.3    30  ARG30       0.0489
     36  CD        -3.5170   14.3420   41.8310 C.3    30  ARG30       0.2205
     37  NE        -2.9670   13.1070   42.3880 N.pl3  30  ARG30      -0.0865
     38  CZ        -1.7010   12.7210   42.2540 C.cat  30  ARG30       0.5346
     39  NH1       -0.8410   13.4710   41.5770 N.pl3  30  ARG30       0.1354
     40  NH2       -1.2950   11.5790   42.7940 N.pl3  30  ARG30       0.1354
     41  N         -6.4040   17.6160   35.7080 N.3    32  PRO32      -0.2102
     42  CA        -5.8640   16.9650   34.5100 C.3    32  PRO32       0.1504
     43  C         -5.1110   17.9540   33.6340 C.2    32  PRO32       0.2576
     44  O         -5.6640   18.9900   33.2830 O.2    32  PRO32      -0.2718
     45  CB        -7.1220   16.4690   33.7950 C.3    32  PRO32       0.0282
     46  CG        -8.1770   17.4340   34.2230 C.3    32  PRO32       0.0208
     47  CD        -7.8750   17.6780   35.6700 C.3    32  PRO32       0.0893
     48  N         -3.8700   17.6300   33.2870 N.am   33  VAL33      -0.1966
     49  CA        -3.0210   18.5370   32.5250 C.3    33  VAL33       0.1727
     50  C         -2.4370   17.8480   31.2950 C.2    33  VAL33       0.2616
     51  O         -1.8490   16.7740   31.3960 O.2    33  VAL33      -0.2715
     52  CB        -1.8600   19.0670   33.3910 C.3    33  VAL33       0.0290
     53  CG1       -0.9910   20.0270   32.5890 C.3    33  VAL33       0.0023
     54  CG2       -2.3960   19.7450   34.6470 C.3    33  VAL33       0.0023
     55  N         -2.6210   18.4740   30.1360 N.am   34  ILE34      -0.1977
     56  CA        -1.9970   18.0330   28.8940 C.3    34  ILE34       0.1596
     57  C         -0.7470   18.8670   28.6500 C.2    34  ILE34       0.2287
     58  O         -0.8220   20.0900   28.5750 O.2    34  ILE34      -0.2864
     59  CB        -2.9400   18.2190   27.6910 C.3    34  ILE34       0.0276
     60  CG1       -4.3070   17.5850   27.9740 C.3    34  ILE34       0.0022
     61  CG2       -2.3110   17.6340   26.4250 C.3    34  ILE34       0.0022
     62  CD1       -4.2910   16.0690   28.0230 C.3    34  ILE34       0.0001
     63  N          4.9120   10.7950   28.2100 N.3    48  LYS48      -0.1245
     64  CA         3.4700   10.9470   28.3470 C.3    48  LYS48       0.1561
     65  C          3.0700   12.4170   28.2850 C.2    48  LYS48       0.2260
     66  O          3.8480   13.2970   28.6510 O.2    48  LYS48      -0.2867
     67  CB         2.9990   10.3330   29.6660 C.3    48  LYS48       0.0271
     68  CG         3.4640    8.9130   29.8530 C.3    48  LYS48       0.0035
     69  CD         2.5890    7.9470   29.1200 C.3    48  LYS48       0.0206
     70  CE         2.9510    6.4870   29.3500 C.3    48  LYS48       0.1093
     71  NZ         4.3250    6.1340   29.0150 N.3    48  LYS48      -0.1314
     72  N         -0.1720   13.1720   29.4560 N.3    50  LYS50      -0.1231
     73  CA        -1.2710   13.2420   30.4090 C.3    50  LYS50       0.1693
     74  C         -0.7820   13.1390   31.8490 C.2    50  LYS50       0.2592
     75  O         -0.1510   12.1530   32.2260 O.2    50  LYS50      -0.2718
     76  CB        -2.2680   12.1200   30.1240 C.3    50  LYS50       0.0285
     77  CG        -2.9470   12.2250   28.7700 C.3    50  LYS50       0.0035
     78  CD        -3.9920   11.1330   28.5820 C.3    50  LYS50       0.0206
     79  CE        -4.8350   11.3870   27.3430 C.3    50  LYS50       0.1093
     80  NZ        -5.9610   10.4200   27.2090 N.3    50  LYS50      -0.1314
     81  N         -1.0920   14.1520   32.6530 N.am   51  TYR51      -0.1962
     82  CA        -0.6510   14.1910   34.0420 C.3    51  TYR51       0.1771
     83  C         -1.7480   14.6660   34.9900 C.2    51  TYR51       0.2619
     84  O         -2.3130   15.7370   34.8000 O.2    51  TYR51      -0.2715
     85  CB         0.5550   15.1220   34.1830 C.3    51  TYR51       0.0574
     86  CG         1.7430   14.7280   33.3380 C.ar   51  TYR51      -0.0198
     87  CD1        2.6640   13.7910   33.7890 C.ar   51  TYR51      -0.0009
     88  CD2        1.9490   15.3010   32.0910 C.ar   51  TYR51      -0.0009
     89  CE1        3.7550   13.4320   33.0160 C.ar   51  TYR51       0.0417
     90  CE2        3.0340   14.9480   31.3120 C.ar   51  TYR51       0.0417
     91  CZ         3.9330   14.0140   31.7770 C.ar   51  TYR51       0.1957
     92  OH         5.0120   13.6650   30.9970 O.3    51  TYR51      -0.2866
     93  N         -2.0430   13.8680   36.0110 N.am   52  LEU52      -0.1963
     94  CA        -2.8920   14.3200   37.1130 C.3    52  LEU52       0.1728
     95  C         -2.0220   14.9470   38.1930 C.2    52  LEU52       0.2616
     96  O         -1.3010   14.2430   38.8920 O.2    52  LEU52      -0.2715
     97  CB        -3.6860   13.1590   37.7200 C.3    52  LEU52       0.0311
     98  CG        -5.0790   12.8370   37.1660 C.3    52  LEU52       0.0022
     99  CD1       -5.8270   14.1010   36.7670 C.3    52  LEU52       0.0001
    100  CD2       -4.9910   11.8880   35.9940 C.3    52  LEU52       0.0001
    101  N         -2.0890   16.2660   38.3310 N.am   53  VAL53      -0.1964
    102  CA        -1.2480   16.9690   39.2910 C.3    53  VAL53       0.1712
    103  C         -2.0800   17.5860   40.4110 C.2    53  VAL53       0.2458
    104  O         -3.1130   18.2030   40.1550 O.2    53  VAL53      -0.2730
    105  CB        -0.4120   18.0710   38.6060 C.3    53  VAL53       0.0289
    106  CG1        0.2000   17.5430   37.3210 C.3    53  VAL53       0.0023
    107  CG2       -1.2620   19.2990   38.3230 C.3    53  VAL53       0.0023
    108  N         -1.6300   17.4170   41.6650 N.am   54  PRO54      -0.2727
    109  CA        -2.3780   17.9380   42.8140 C.3    54  PRO54       0.1402
    110  C         -2.6510   19.4300   42.7060 C.2    54  PRO54       0.2269
    111  O         -1.8320   20.1880   42.1850 O.2    54  PRO54      -0.2865
    112  CB        -1.4460   17.6450   44.0010 C.3    54  PRO54       0.0296
    113  CG        -0.1040   17.3720   43.3820 C.3    54  PRO54       0.0237
    114  CD        -0.4340   16.6840   42.1060 C.3    54  PRO54       0.0939
    115  N          0.0080   22.1170   44.4180 N.3    57  LEU57      -0.1245
    116  CA         1.3380   22.3900   43.8690 C.3    57  LEU57       0.1561
    117  C          1.3760   23.7360   43.1690 C.2    57  LEU57       0.2260
    118  O          0.4510   24.0810   42.4440 O.2    57  LEU57      -0.2867
    119  CB         1.7420   21.3150   42.8620 C.3    57  LEU57       0.0270
    120  CG         2.3320   20.0200   43.4130 C.3    57  LEU57       0.0019
    121  CD1        2.6980   19.1120   42.2540 C.3    57  LEU57       0.0001
    122  CD2        3.5480   20.2910   44.2860 C.3    57  LEU57       0.0001
    123  N          5.9620   22.6350   39.7470 N.3    62  PHE62      -0.1241
    124  CA         5.6280   21.8610   38.5580 C.3    62  PHE62       0.1605
    125  C          6.7420   21.9500   37.5080 C.2    62  PHE62       0.2264
    126  O          7.1270   20.9390   36.9280 O.2    62  PHE62      -0.2867
    127  CB         4.2870   22.3270   37.9830 C.3    62  PHE62       0.0534
    128  CG         3.7380   21.4260   36.9130 C.ar   62  PHE62      -0.0203
    129  CD1        3.4480   20.1000   37.1870 C.ar   62  PHE62      -0.0042
    130  CD2        3.4880   21.9100   35.6390 C.ar   62  PHE62      -0.0042
    131  CE1        2.9360   19.2690   36.2030 C.ar   62  PHE62      -0.0003
    132  CE2        2.9740   21.0840   34.6560 C.ar   62  PHE62      -0.0003
    133  CZ         2.6990   19.7630   34.9390 C.ar   62  PHE62      -0.0000
    134  N          9.0650   19.1660   38.6100 N.3    65  LEU65      -0.1231
    135  CA         8.7350   17.7500   38.4630 C.3    65  LEU65       0.1693
    136  C          8.7990   17.3660   36.9860 C.2    65  LEU65       0.2591
    137  O          8.9920   16.2000   36.6400 O.2    65  LEU65      -0.2718
    138  CB         7.3400   17.4560   39.0160 C.3    65  LEU65       0.0284
    139  CG         7.0230   18.1000   40.3660 C.3    65  LEU65       0.0019
    140  CD1        5.5740   17.8530   40.7510 C.3    65  LEU65       0.0001
    141  CD2        7.9680   17.6140   41.4630 C.3    65  LEU65       0.0001
    142  N          8.6330   18.3610   36.1210 N.am   66  ILE66      -0.1980
    143  CA         8.7360   18.1620   34.6820 C.3    66  ILE66       0.1595
    144  C         10.1990   18.2300   34.2640 C.2    66  ILE66       0.2287
    145  O         10.6610   17.4350   33.4460 O.2    66  ILE66      -0.2864
    146  CB         7.9490   19.2370   33.9070 C.3    66  ILE66       0.0276
    147  CG1        6.4420   19.0620   34.1200 C.3    66  ILE66       0.0022
    148  CG2        8.2850   19.1790   32.4250 C.3    66  ILE66       0.0022
    149  CD1        5.8830   17.7580   33.5750 C.3    66  ILE66       0.0001
    150  N         11.6020   14.9610   34.4420 N.3    69  ARG69      -0.1245
    151  CA        11.1290   14.0160   33.4320 C.3    69  ARG69       0.1563
    152  C         11.8560   14.1740   32.1000 C.2    69  ARG69       0.2260
    153  O         12.1080   13.1920   31.4010 O.2    69  ARG69      -0.2867
    154  CB         9.6270   14.1980   33.2110 C.3    69  ARG69       0.0307
    155  CG         8.7620   13.6780   34.3450 C.3    69  ARG69       0.0489
    156  CD         8.6300   12.1670   34.2850 C.3    69  ARG69       0.2205
    157  NE         8.0550   11.6270   35.5140 N.pl3  69  ARG69      -0.0865
    158  CZ         6.8540   11.0620   35.6060 C.cat  69  ARG69       0.5346
    159  NH1        6.0760   10.9390   34.5350 N.pl3  69  ARG69       0.1354
    160  NH2        6.4330   10.6080   36.7780 N.pl3  69  ARG69       0.1354
    161  N         -9.8200   20.0310   30.6270 N.3   106  PHE106     -0.1241
    162  CA        -8.3730   19.8380   30.7150 C.3   106  PHE106      0.1605
    163  C         -7.6410   21.1740   30.7160 C.2   106  PHE106      0.2264
    164  O         -8.1060   22.1530   30.1360 O.2   106  PHE106     -0.2867
    165  CB        -7.8510   19.0010   29.5450 C.3   106  PHE106      0.0534
    166  CG        -8.4310   17.6250   29.4730 C.ar  106  PHE106     -0.0203
    167  CD1       -8.6600   16.8910   30.6220 C.ar  106  PHE106     -0.0042
    168  CD2       -8.7250   17.0540   28.2520 C.ar  106  PHE106     -0.0042
    169  CE1       -9.1940   15.6190   30.5510 C.ar  106  PHE106     -0.0003
    170  CE2       -9.2540   15.7840   28.1720 C.ar  106  PHE106     -0.0003
    171  CZ        -9.4890   15.0660   29.3210 C.ar  106  PHE106     -0.0000
@<TRIPOS>BOND
     1    61    59    1
     2    80    79    1
     3    79    78    1
     4     8     7   ar
     5    59    60    1
     6    59    56    1
     7    60    62    1
     8   170   168   ar
     9   170   171   ar
    10    63    64    1
    11   168   166   ar
    12    65    64    1
    13    65    66    2
    14    64    67    1
    15    58    57    2
    16    78    77    1
    17    57    56    1
    18     7     9   ar
    19     7     6    1
    20     5     6    1
    21     5     2    1
    22    77    76    1
    23     1     2    1
    24    56    55    1
    25    71    70    1
    26    69    70    1
    27    69    68    1
    28   171   169   ar
    29    72    73    1
    30   166   165    1
    31   166   167   ar
    32   165   162    1
    33     2     3    1
    34    67    68    1
    35    76    73    1
    36    55    50   am
    37   164   163    2
    38    73    74    1
    39   169   167   ar
    40   161   162    1
    41   162   163    1
    42     3     4    2
    43    92    91    1
    44    50    51    2
    45    50    49    1
    46    90    91   ar
    47    90    88   ar
    48   153   152    2
    49    91    89   ar
    50    74    75    2
    51    74    81   am
    52    88    86   ar
    53   152   151    1
    54   148   146    1
    55    49    48    1
    56    49    52    1
    57    53    52    1
    58    81    82    1
    59    89    87   ar
    60   154   151    1
    61   154   155    1
    62    44    43    2
    63    48    43   am
    64    86    87   ar
    65    86    85    1
    66    52    54    1
    67   151   150    1
    68   145   144    2
    69   149   147    1
    70    43    42    1
    71    45    46    1
    72    45    42    1
    73   146   147    1
    74   146   143    1
    75    82    85    1
    76    82    83    1
    77    46    47    1
    78   144   143    1
    79   156   155    1
    80   156   157    1
    81    42    41    1
    82   159   158    1
    83    16    14    1
    84    14    15    1
    85    14    11    1
    86    17    15    1
    87   132   133   ar
    88   132   130   ar
    89   143   142    1
    90    10    11    1
    91    84    83    2
    92   133   131   ar
    93    83    93   am
    94    11    12    1
    95   157   158    2
    96   158   160    1
    97   130   128   ar
    98    47    41    1
    99   100    98    1
   100    93    94    1
   101   142   136   am
   102   131   129   ar
   103    12    13    2
   104   137   136    2
   105    99    98    1
   106   128   129   ar
   107   128   127    1
   108   126   125    2
   109   136   135    1
   110    94    97    1
   111    94    95    1
   112    98    97    1
   113   106   105    1
   114   125   124    1
   115   127   124    1
   116    95   101   am
   117    95    96    2
   118   107   105    1
   119   101   102    1
   120    27    25   ar
   121    27    28   ar
   122   135   134    1
   123   135   138    1
   124   124   123    1
   125   105   102    1
   126    25    23   ar
   127    29    28    1
   128   138   139    1
   129   102   103    1
   130    28    26   ar
   131    33    32    2
   132    32    31    1
   133    23    22    1
   134    23    24   ar
   135   104   103    2
   136    18    19    1
   137    22    19    1
   138   139   140    1
   139   139   141    1
   140   103   108   am
   141    26    24   ar
   142    34    31    1
   143    34    35    1
   144    21    20    2
   145    19    20    1
   146    31    30    1
   147    39    38    1
   148   108   114    1
   149   108   109    1
   150    35    36    1
   151    36    37    1
   152   114   113    1
   153   111   110    2
   154   121   120    1
   155    38    37    2
   156    38    40    1
   157   118   117    2
   158   110   109    1
   159   109   112    1
   160   119   120    1
   161   119   116    1
   162   117   116    1
   163   113   112    1
   164   120   122    1
   165   116   115    1
