@<TRIPOS>MOLECULE
tmp/3dozA03.pdb
 90 90 0 0 0
SMALL
GASTEIGER

@<TRIPOS>ATOM
      1  N         -6.1770   10.6660   13.5390 N.3    50  HIS50      -0.1226
      2  CA        -7.5280   11.0240   13.1470 C.3    50  HIS50       0.1752
      3  C         -8.3160   11.6420   14.3030 C.2    50  HIS50       0.2596
      4  O         -9.1930   10.9970   14.8850 O.2    50  HIS50      -0.2718
      5  CB        -8.2390    9.7750   12.6050 C.3    50  HIS50       0.0759
      6  CG        -9.5600   10.0510   11.9540 C.ar   50  HIS50       0.0818
      7  ND1      -10.6810   10.4240   12.6640 N.ar   50  HIS50      -0.2268
      8  CD2       -9.9450    9.9800   10.6570 C.ar   50  HIS50       0.1154
      9  CE1      -11.6980   10.5680   11.8350 C.ar   50  HIS50       0.1986
     10  NE2      -11.2780   10.3060   10.6120 N.ar   50  HIS50      -0.2212
     11  N         -7.9770   12.8780   14.6610 N.am   51  PHE51      -0.1976
     12  CA        -6.8940   13.6240   14.0180 C.3    51  PHE51       0.1639
     13  C         -5.9790   14.1690   15.1180 C.2    51  PHE51       0.2290
     14  O         -6.3540   14.1990   16.2930 O.2    51  PHE51      -0.2864
     15  CB        -7.4470   14.7880   13.1800 C.3    51  PHE51       0.0560
     16  CG        -8.4020   14.3630   12.0900 C.ar   51  PHE51      -0.0200
     17  CD1       -9.7500   14.1520   12.3670 C.ar   51  PHE51      -0.0042
     18  CD2       -7.9420   14.1460   10.7880 C.ar   51  PHE51      -0.0042
     19  CE1      -10.6280   13.7300   11.3630 C.ar   51  PHE51      -0.0003
     20  CE2       -8.8060   13.7270    9.7810 C.ar   51  PHE51      -0.0003
     21  CZ       -10.1540   13.5170   10.0670 C.ar   51  PHE51      -0.0000
     22  N         -7.2860   16.4570   17.8180 N.3    54  LYS54      -0.1245
     23  CA        -8.7250   16.5090   17.6010 C.3    54  LYS54       0.1561
     24  C         -9.2030   15.0770   17.4140 C.2    54  LYS54       0.2260
     25  O         -9.5700   14.6730   16.3100 O.2    54  LYS54      -0.2867
     26  CB        -9.0560   17.3430   16.3640 C.3    54  LYS54       0.0271
     27  CG       -10.5370   17.6960   16.2390 C.3    54  LYS54       0.0035
     28  CD       -10.9850   18.5370   17.4270 C.3    54  LYS54       0.0206
     29  CE       -12.3810   19.1220   17.2270 C.3    54  LYS54       0.1093
     30  NZ       -13.4140   18.0640   17.0250 N.3    54  LYS54      -0.1314
     31  N        -11.1820   11.9380   16.9230 N.3    56  ILE56      -0.1231
     32  CA       -12.4930   11.6540   16.3460 C.3    56  ILE56       0.1692
     33  C        -12.5170   10.2390   15.7650 C.2    56  ILE56       0.2592
     34  O        -11.8190    9.9530   14.8040 O.2    56  ILE56      -0.2718
     35  CB       -12.8470   12.6690   15.2400 C.3    56  ILE56       0.0266
     36  CG1      -12.8730   14.0860   15.8310 C.3    56  ILE56       0.0019
     37  CG2      -14.1970   12.3250   14.6390 C.3    56  ILE56       0.0020
     38  CD1      -13.2170   15.1650   14.8330 C.3    56  ILE56       0.0001
     39  N        -13.3120    9.3570   16.3640 N.am   57  PHE57      -0.1976
     40  CA       -13.4130    7.9790   15.8990 C.3    57  PHE57       0.1639
     41  C        -13.9350    7.9660   14.4640 C.2    57  PHE57       0.2290
     42  O        -15.0000    8.5150   14.1800 O.2    57  PHE57      -0.2864
     43  CB       -14.3590    7.1820   16.7980 C.3    57  PHE57       0.0560
     44  CG       -14.1780    5.6990   16.6910 C.ar   57  PHE57      -0.0200
     45  CD1      -13.0410    5.0880   17.2040 C.ar   57  PHE57      -0.0042
     46  CD2      -15.1200    4.9130   16.0440 C.ar   57  PHE57      -0.0042
     47  CE1      -12.8420    3.7240   17.0730 C.ar   57  PHE57      -0.0003
     48  CE2      -14.9260    3.5420   15.9070 C.ar   57  PHE57      -0.0003
     49  CZ       -13.7830    2.9490   16.4230 C.ar   57  PHE57      -0.0000
     50  N        -15.7260    7.4420   11.0000 N.3    59  GLY59      -0.1225
     51  CA       -17.0690    7.0410   10.6380 C.3    59  GLY59       0.1811
     52  C        -17.0860    5.6720    9.9890 C.2    59  GLY59       0.2280
     53  O        -17.9530    4.8460   10.2800 O.2    59  GLY59      -0.2866
     54  N        -23.7280    9.9880    8.7950 N.3   101  PHE101     -0.1227
     55  CA       -23.0100   10.3370   10.0230 C.3   101  PHE101      0.1736
     56  C        -23.6640   11.5870   10.5760 C.2   101  PHE101      0.2595
     57  O        -23.7570   12.5820    9.8810 O.2   101  PHE101     -0.2718
     58  CB       -21.5360   10.6060    9.7210 C.3   101  PHE101      0.0547
     59  CG       -20.8040    9.4120    9.1790 C.ar  101  PHE101     -0.0202
     60  CD1      -20.1430    9.4770    7.9540 C.ar  101  PHE101     -0.0042
     61  CD2      -20.7690    8.2200    9.8910 C.ar  101  PHE101     -0.0042
     62  CE1      -19.4610    8.3690    7.4530 C.ar  101  PHE101     -0.0003
     63  CE2      -20.0910    7.1120    9.3980 C.ar  101  PHE101     -0.0003
     64  CZ       -19.4380    7.1830    8.1810 C.ar  101  PHE101     -0.0000
     65  N        -24.1220   11.5310   11.8210 N.am  102  ARG102     -0.1966
     66  CA       -24.7930   12.6730   12.4230 C.3   102  ARG102      0.1729
     67  C        -24.0180   13.3860   13.5010 C.2   102  ARG102      0.2616
     68  O        -24.0690   14.6140   13.5860 O.2   102  ARG102     -0.2715
     69  CB       -26.1390   12.2590   13.0150 C.3   102  ARG102      0.0348
     70  CG       -27.2190   11.9580   12.0040 C.3   102  ARG102      0.0492
     71  CD       -28.5530   11.7520   12.7030 C.3   102  ARG102      0.2205
     72  NE       -29.4110   10.8410   11.9480 N.pl3 102  ARG102     -0.0865
     73  CZ       -30.0070   11.1320   10.7950 C.cat 102  ARG102      0.5346
     74  NH1      -29.8590   12.3320   10.2380 N.pl3 102  ARG102      0.1354
     75  NH2      -30.7410   10.2020   10.1840 N.pl3 102  ARG102      0.1354
     76  N        -23.3240   12.6250   14.3420 N.am  103  ILE103     -0.1964
     77  CA       -22.5620   13.2110   15.4390 C.3   103  ILE103      0.1712
     78  C        -21.1640   12.6140   15.5620 C.2   103  ILE103      0.2458
     79  O        -20.9700   11.4140   15.4140 O.2   103  ILE103     -0.2730
     80  CB       -23.3170   13.0230   16.7810 C.3   103  ILE103      0.0289
     81  CG1      -24.6810   13.7120   16.7020 C.3   103  ILE103      0.0022
     82  CG2      -22.5030   13.5930   17.9470 C.3   103  ILE103      0.0023
     83  CD1      -25.5140   13.5900   17.9620 C.3   103  ILE103      0.0001
     84  N        -20.1600   13.4480   15.8250 N.am  104  PRO104     -0.2727
     85  CA       -18.8310   12.8540   15.9430 C.3   104  PRO104      0.1402
     86  C        -18.6680   12.0340   17.2300 C.2   104  PRO104      0.2269
     87  O        -19.1040   12.4360   18.3100 O.2   104  PRO104     -0.2865
     88  CB       -17.9080   14.0720   15.8840 C.3   104  PRO104      0.0296
     89  CG       -18.7320   15.1490   16.4900 C.3   104  PRO104      0.0237
     90  CD       -20.0930   14.9170   15.8850 C.3   104  PRO104      0.0939
@<TRIPOS>BOND
     1    62    60   ar
     2    62    64   ar
     3    60    59   ar
     4    64    63   ar
     5    54    55    1
     6    59    58    1
     7    59    61   ar
     8    63    61   ar
     9    58    55    1
    10    20    21   ar
    11    20    18   ar
    12    57    56    2
    13    52    53    2
    14    52    51    1
    15    55    56    1
    16    21    19   ar
    17    75    73    1
    18    74    73    1
    19    56    65   am
    20    10     8   ar
    21    10     9   ar
    22    51    50    1
    23     8     6   ar
    24    18    16   ar
    25    73    72    2
    26    19    17   ar
    27    65    66    1
    28     9     7   ar
    29    72    71    1
    30     6     5    1
    31     6     7   ar
    32    70    71    1
    33    70    69    1
    34    16    17   ar
    35    16    15    1
    36    66    69    1
    37    66    67    1
    38     5     2    1
    39     2     1    1
    40     2     3    1
    41    15    12    1
    42    67    68    2
    43    67    76   am
    44    12    11    1
    45    12    13    1
    46    42    41    2
    47     3    11   am
    48     3     4    2
    49    76    77    1
    50    41    40    1
    51    37    35    1
    52    34    33    2
    53    38    36    1
    54    13    14    2
    55    35    36    1
    56    35    32    1
    57    79    78    2
    58    77    78    1
    59    77    80    1
    60    78    84   am
    61    33    32    1
    62    33    39   am
    63    84    90    1
    64    84    85    1
    65    88    85    1
    66    88    89    1
    67    90    89    1
    68    40    39    1
    69    40    43    1
    70    48    46   ar
    71    48    49   ar
    72    85    86    1
    73    46    44   ar
    74    27    26    1
    75    27    28    1
    76    25    24    2
    77    32    31    1
    78    26    23    1
    79    49    47   ar
    80    44    43    1
    81    44    45   ar
    82    81    80    1
    83    81    83    1
    84    80    82    1
    85    30    29    1
    86    47    45   ar
    87    29    28    1
    88    86    87    2
    89    24    23    1
    90    23    22    1
