@<TRIPOS>MOLECULE
tmp/3dp0A01.pdb
 94 95 0 0 0
SMALL
GASTEIGER

@<TRIPOS>ATOM
      1  N          6.2340   10.6170  -13.5170 N.3    51  HIS51      -0.1226
      2  CA         7.5740   11.0210  -13.1340 C.3    51  HIS51       0.1752
      3  C          8.3270   11.6340  -14.3140 C.2    51  HIS51       0.2596
      4  O          9.2160   11.0040  -14.8790 O.2    51  HIS51      -0.2718
      5  CB         8.3200    9.8030  -12.5710 C.3    51  HIS51       0.0759
      6  CG         9.6590   10.1210  -11.9780 C.ar   51  HIS51       0.0818
      7  ND1       10.7700   10.4030  -12.7470 N.ar   51  HIS51      -0.2268
      8  CD2       10.0670   10.1960  -10.6890 C.ar   51  HIS51       0.1154
      9  CE1       11.8030   10.6370  -11.9570 C.ar   51  HIS51       0.1986
     10  NE2       11.4040   10.5200  -10.7030 N.ar   51  HIS51      -0.2212
     11  N          7.9820   12.8630  -14.6930 N.am   52  PHE52      -0.1963
     12  CA         6.9320   13.6670  -14.0550 C.3    52  PHE52       0.1756
     13  C          6.0050   14.2410  -15.1340 C.2    52  PHE52       0.2461
     14  O          6.3660   14.3030  -16.3100 O.2    52  PHE52      -0.2730
     15  CB         7.5610   14.8380  -13.2880 C.3    52  PHE52       0.0574
     16  CG         8.4370   14.4230  -12.1470 C.ar   52  PHE52      -0.0200
     17  CD1        7.8890   14.1070  -10.9130 C.ar   52  PHE52      -0.0042
     18  CD2        9.8130   14.3610  -12.3010 C.ar   52  PHE52      -0.0042
     19  CE1        8.7000   13.7390   -9.8460 C.ar   52  PHE52      -0.0003
     20  CE2       10.6330   13.9900  -11.2380 C.ar   52  PHE52      -0.0003
     21  CZ        10.0740   13.6800  -10.0080 C.ar   52  PHE52      -0.0000
     22  N          4.8010   14.6820  -14.7470 N.am   53  PRO53      -0.2716
     23  CA         3.9040   15.2400  -15.7660 C.3    53  PRO53       0.1536
     24  C          4.5940   16.3820  -16.5140 C.2    53  PRO53       0.2599
     25  O          5.1850   17.2630  -15.8890 O.2    53  PRO53      -0.2715
     26  CB         2.7160   15.7290  -14.9430 C.3    53  PRO53       0.0310
     27  CG         2.6820   14.7560  -13.8000 C.3    53  PRO53       0.0237
     28  CD         4.1440   14.6370  -13.4290 C.3    53  PRO53       0.0939
     29  N          4.5410   16.3620  -17.8460 N.am   54  ASN54      -0.1959
     30  CA         5.1670   17.4250  -18.6320 C.3    54  ASN54       0.1819
     31  C          6.6790   17.5070  -18.4720 C.2    54  ASN54       0.2621
     32  O          7.2860   18.4870  -18.9080 O.2    54  ASN54      -0.2715
     33  CB         4.6000   18.7850  -18.2270 C.3    54  ASN54       0.1195
     34  CG         3.2640   19.0820  -18.8690 C.2    54  ASN54       0.2630
     35  OD1        2.5720   20.0320  -18.4680 O.2    54  ASN54      -0.2716
     36  ND2        2.8910   18.2870  -19.8840 N.am   54  ASN54      -0.0877
     37  N          7.2920   16.5040  -17.8480 N.am   55  LYS55      -0.1977
     38  CA         8.7340   16.5410  -17.6220 C.3    55  LYS55       0.1596
     39  C          9.2200   15.1300  -17.3070 C.2    55  LYS55       0.2287
     40  O          9.5870   14.8210  -16.1690 O.2    55  LYS55      -0.2864
     41  CB         9.0340   17.4780  -16.4510 C.3    55  LYS55       0.0298
     42  CG        10.2880   18.3070  -16.5990 C.3    55  LYS55       0.0038
     43  CD        11.5400   17.4500  -16.6220 C.3    55  LYS55       0.0206
     44  CE        12.7810   18.3240  -16.7930 C.3    55  LYS55       0.1093
     45  NZ        12.7000   19.1370  -18.0480 N.3    55  LYS55      -0.1314
     46  N         11.3870   12.0960  -16.6690 N.3    57  ILE57      -0.1245
     47  CA        12.7400   11.7920  -16.2030 C.3    57  ILE57       0.1561
     48  C         12.6860   10.3300  -15.7630 C.2    57  ILE57       0.2260
     49  O         11.7910    9.9440  -15.0120 O.2    57  ILE57      -0.2867
     50  CB        13.1550   12.6390  -14.9580 C.3    57  ILE57       0.0252
     51  CG1       12.9200   14.1310  -15.2030 C.3    57  ILE57       0.0019
     52  CG2       14.6160   12.4000  -14.6420 C.3    57  ILE57       0.0019
     53  CD1       13.7020   14.7050  -16.3520 C.3    57  ILE57       0.0001
     54  N         15.7940    7.5180  -11.0200 N.3    60  GLY60      -0.1225
     55  CA        17.1320    7.1080  -10.6520 C.3    60  GLY60       0.1811
     56  C         17.1660    5.7420   -9.9810 C.2    60  GLY60       0.2280
     57  O         18.0570    4.9410  -10.2520 O.2    60  GLY60      -0.2866
     58  N         23.8680    9.9410   -8.8240 N.3   102  PHE102     -0.1227
     59  CA        23.2130   10.2970  -10.0800 C.3   102  PHE102      0.1736
     60  C         23.8530   11.5910  -10.5930 C.2   102  PHE102      0.2595
     61  O         23.8940   12.5880   -9.8750 O.2   102  PHE102     -0.2718
     62  CB        21.7140   10.5110   -9.8490 C.3   102  PHE102      0.0547
     63  CG        21.0090    9.3180   -9.2650 C.ar  102  PHE102     -0.0202
     64  CD1       20.3730    9.4060   -8.0280 C.ar  102  PHE102     -0.0042
     65  CD2       20.9530    8.1150   -9.9600 C.ar  102  PHE102     -0.0042
     66  CE1       19.6880    8.3080   -7.4940 C.ar  102  PHE102     -0.0003
     67  CE2       20.2720    7.0140   -9.4360 C.ar  102  PHE102     -0.0003
     68  CZ        19.6390    7.1080   -8.2050 C.ar  102  PHE102     -0.0000
     69  N         24.3450   11.5760  -11.8290 N.am  103  ARG103     -0.1966
     70  CA        25.0060   12.7440  -12.4000 C.3   103  ARG103      0.1729
     71  C         24.2480   13.4850  -13.4770 C.2   103  ARG103      0.2616
     72  O         24.3350   14.7070  -13.5550 O.2   103  ARG103     -0.2715
     73  CB        26.3640   12.3540  -12.9780 C.3   103  ARG103      0.0348
     74  CG        27.3720   11.9040  -11.9660 C.3   103  ARG103      0.0492
     75  CD        28.7040   11.6290  -12.6470 C.3   103  ARG103      0.2205
     76  NE        29.7240   11.1840  -11.6970 N.pl3 103  ARG103     -0.0865
     77  CZ        30.1380   11.9010  -10.6530 C.cat 103  ARG103      0.5346
     78  NH1       29.6180   13.1020  -10.4230 N.pl3 103  ARG103      0.1354
     79  NH2       31.0740   11.4200   -9.8380 N.pl3 103  ARG103      0.1354
     80  N         23.5350   12.7490  -14.3250 N.am  104  ILE104     -0.1964
     81  CA        22.7840   13.3550  -15.4260 C.3   104  ILE104      0.1712
     82  C         21.3980   12.7150  -15.5660 C.2   104  ILE104      0.2458
     83  O         21.2520   11.5020  -15.4720 O.2   104  ILE104     -0.2730
     84  CB        23.5570   13.1830  -16.7640 C.3   104  ILE104      0.0289
     85  CG1       25.0300   13.5540  -16.5590 C.3   104  ILE104      0.0022
     86  CG2       22.9260   14.0400  -17.8690 C.3   104  ILE104      0.0023
     87  CD1       25.9010   13.2880  -17.7690 C.3   104  ILE104      0.0001
     88  N         20.3590   13.5260  -15.7950 N.am  105  PRO105     -0.2727
     89  CA        19.0260   12.9430  -15.9320 C.3   105  PRO105      0.1402
     90  C         18.8230   12.1240  -17.2070 C.2   105  PRO105      0.2269
     91  O         19.2920   12.4850  -18.2860 O.2   105  PRO105     -0.2865
     92  CB        18.1050   14.1630  -15.8550 C.3   105  PRO105      0.0296
     93  CG        18.9280   15.2390  -16.4400 C.3   105  PRO105      0.0237
     94  CD        20.2980   14.9950  -15.8410 C.3   105  PRO105      0.0939
@<TRIPOS>BOND
     1    36    34   am
     2    32    31    2
     3    34    35    2
     4    34    33    1
     5    30    31    1
     6    30    33    1
     7    30    29    1
     8    31    37   am
     9    91    90    2
    10    45    44    1
    11    86    84    1
    12    37    38    1
    13    29    24   am
    14    87    85    1
    15    38    39    1
    16    38    41    1
    17    39    40    2
    18    90    89    1
    19    44    43    1
    20    84    85    1
    21    84    81    1
    22    46    47    1
    23    43    42    1
    24    42    41    1
    25    24    25    2
    26    24    23    1
    27    93    92    1
    28    93    94    1
    29    53    51    1
    30    14    13    2
    31    47    48    1
    32    47    50    1
    33    89    92    1
    34    89    88    1
    35    94    88    1
    36    88    82   am
    37    23    26    1
    38    23    22    1
    39    48    49    2
    40    82    83    2
    41    82    81    1
    42    81    80    1
    43    51    50    1
    44    13    22   am
    45    13    12    1
    46    50    52    1
    47    26    27    1
    48     4     3    2
    49    22    28    1
    50    11     3   am
    51    11    12    1
    52    80    71   am
    53     3     2    1
    54    12    15    1
    55    27    28    1
    56    72    71    2
    57     1     2    1
    58    71    70    1
    59    15    16    1
    60     2     5    1
    61    73    70    1
    62    73    74    1
    63     7     6   ar
    64     7     9   ar
    65    75    74    1
    66    75    76    1
    67     5     6    1
    68    70    69    1
    69    18    16   ar
    70    18    20   ar
    71    16    17   ar
    72     6     8   ar
    73     9    10   ar
    74    69    60   am
    75    76    77    2
    76    20    21   ar
    77    54    55    1
    78    17    19   ar
    79    10     8   ar
    80    77    78    1
    81    77    79    1
    82    55    56    1
    83    60    59    1
    84    60    61    2
    85    57    56    2
    86    59    62    1
    87    59    58    1
    88    21    19   ar
    89    65    67   ar
    90    65    63   ar
    91    62    63    1
    92    67    68   ar
    93    63    64   ar
    94    68    66   ar
    95    64    66   ar
