@<TRIPOS>MOLECULE
tmp/3dp1C00.pdb
 104 103 0 0 0
SMALL
GASTEIGER

@<TRIPOS>ATOM
      1  N          7.4800  -19.2170   31.0020 N.3    12  ILE12      -0.1231
      2  CA         6.9150  -19.2370   32.3480 C.3    12  ILE12       0.1692
      3  C          5.8490  -18.1640   32.5870 C.2    12  ILE12       0.2592
      4  O          4.7900  -18.4470   33.1600 O.2    12  ILE12      -0.2718
      5  CB         8.0190  -19.0990   33.4210 C.3    12  ILE12       0.0266
      6  CG1        9.0430  -20.2250   33.2540 C.3    12  ILE12       0.0019
      7  CG2        7.3960  -19.1130   34.8200 C.3    12  ILE12       0.0020
      8  CD1        8.4730  -21.6070   33.3870 C.3    12  ILE12       0.0001
      9  N          6.1250  -16.9370   32.1640 N.am   13  LEU13      -0.1966
     10  CA         5.1530  -15.8620   32.3330 C.3    13  LEU13       0.1713
     11  C          4.2240  -15.8290   31.1220 C.2    13  LEU13       0.2458
     12  O          4.6400  -16.1380   30.0050 O.2    13  LEU13      -0.2730
     13  CB         5.8490  -14.5020   32.4620 C.3    13  LEU13       0.0310
     14  CG         6.8120  -14.2680   33.6260 C.3    13  LEU13       0.0022
     15  CD1        7.3810  -12.8480   33.5480 C.3    13  LEU13       0.0001
     16  CD2        6.0750  -14.4830   34.9420 C.3    13  LEU13       0.0001
     17  N          2.9440  -15.4800   31.3380 N.am   14  PRO14      -0.2716
     18  CA         1.9620  -15.4030   30.2550 C.3    14  PRO14       0.1536
     19  C          2.0610  -14.0490   29.5440 C.2    14  PRO14       0.2598
     20  O          1.5930  -13.8980   28.4150 O.2    14  PRO14      -0.2715
     21  CB         0.6360  -15.5710   30.9890 C.3    14  PRO14       0.0310
     22  CG         0.8900  -14.8640   32.2630 C.3    14  PRO14       0.0237
     23  CD         2.2820  -15.3350   32.6470 C.3    14  PRO14       0.0939
     24  N          2.6760  -13.0800   30.2220 N.am   15  HIS15      -0.1974
     25  CA         2.8540  -11.7290   29.6910 C.3    15  HIS15       0.1656
     26  C          3.5440  -11.7050   28.3330 C.2    15  HIS15       0.2291
     27  O          4.4970  -12.4430   28.0920 O.2    15  HIS15      -0.2864
     28  CB         3.6840  -10.8650   30.6530 C.3    15  HIS15       0.0771
     29  CG         3.0620  -10.6800   31.9990 C.ar   15  HIS15       0.0820
     30  ND1        2.9710  -11.6970   32.9200 N.ar   15  HIS15      -0.2267
     31  CD2        2.4800   -9.5990   32.5710 C.ar   15  HIS15       0.1154
     32  CE1        2.3570  -11.2530   34.0020 C.ar   15  HIS15       0.1986
     33  NE2        2.0490   -9.9820   33.8160 N.ar   15  HIS15      -0.2212
     34  N          6.2700   -8.8880   38.1150 N.3    68  GLN68      -0.1245
     35  CA         6.5580   -9.9870   37.2100 C.3    68  GLN68       0.1566
     36  C          7.7170  -10.8190   37.7600 C.2    68  GLN68       0.2260
     37  O          7.6510  -12.0510   37.7820 O.2    68  GLN68      -0.2867
     38  CB         6.8650   -9.4540   35.8070 C.3    68  GLN68       0.0367
     39  CG         5.6110   -9.2510   34.9670 C.3    68  GLN68       0.0905
     40  CD         5.8310   -8.4200   33.7030 C.2    68  GLN68       0.2608
     41  OE1        6.8100   -8.6050   32.9750 O.2    68  GLN68      -0.2717
     42  NE2        4.9000   -7.5100   33.4310 N.am   68  GLN68      -0.0878
     43  N          6.4800  -12.8940   40.5750 N.3    71  GLY71      -0.1225
     44  CA         5.6950  -14.0110   40.0860 C.3    71  GLY71       0.1811
     45  C          6.5480  -15.1440   39.5480 C.2    71  GLY71       0.2280
     46  O          6.2370  -16.3190   39.7450 O.2    71  GLY71      -0.2866
     47  N         -1.3220  -22.1650   35.3480 N.3    89  LYS89      -0.1231
     48  CA        -1.2890  -21.3240   36.5410 C.3    89  LYS89       0.1693
     49  C         -1.3990  -19.8400   36.2550 C.2    89  LYS89       0.2592
     50  O         -1.1150  -19.3730   35.1530 O.2    89  LYS89      -0.2718
     51  CB         0.0170  -21.5470   37.3110 C.3    89  LYS89       0.0285
     52  CG         0.2810  -22.9770   37.7160 C.3    89  LYS89       0.0035
     53  CD        -0.7610  -23.4770   38.6940 C.3    89  LYS89       0.0206
     54  CE        -0.5950  -24.9770   38.9220 C.3    89  LYS89       0.1093
     55  NZ        -1.6700  -25.5380   39.7850 N.3    89  LYS89      -0.1314
     56  N         -1.8180  -19.1020   37.2730 N.am   90  ILE90      -0.1966
     57  CA        -1.9250  -17.6590   37.1780 C.3    90  ILE90       0.1727
     58  C         -1.6320  -17.1200   38.5630 C.2    90  ILE90       0.2616
     59  O         -1.9410  -17.7680   39.5630 O.2    90  ILE90      -0.2715
     60  CB        -3.3550  -17.1840   36.7620 C.3    90  ILE90       0.0290
     61  CG1       -4.1450  -16.7050   37.9800 C.3    90  ILE90       0.0022
     62  CG2       -4.1320  -18.3230   36.1450 C.3    90  ILE90       0.0023
     63  CD1       -5.4210  -16.0000   37.6070 C.3    90  ILE90       0.0001
     64  N         -1.0180  -15.9490   38.6260 N.am   91  VAL91      -0.1963
     65  CA        -0.7600  -15.3260   39.9130 C.3    91  VAL91       0.1727
     66  C         -1.2700  -13.9010   39.8330 C.2    91  VAL91       0.2616
     67  O         -0.6990  -13.0810   39.1150 O.2    91  VAL91      -0.2715
     68  CB         0.7670  -15.3590   40.3080 C.3    91  VAL91       0.0290
     69  CG1        1.5990  -15.7420   39.1420 C.3    91  VAL91       0.0023
     70  CG2        1.2230  -14.0080   40.8780 C.3    91  VAL91       0.0023
     71  N         -2.3810  -13.6070   40.5110 N.am   92  TYR92      -0.1960
     72  CA        -2.8690  -12.2340   40.4750 C.3    92  TYR92       0.1771
     73  C         -2.2720  -11.5020   41.6490 C.2    92  TYR92       0.2619
     74  O         -2.0970  -12.0710   42.7290 O.2    92  TYR92      -0.2715
     75  CB        -4.3920  -12.0780   40.6050 C.3    92  TYR92       0.0574
     76  CG        -5.2780  -13.2970   40.5600 C.ar   92  TYR92      -0.0198
     77  CD1       -5.0950  -14.3560   41.4410 C.ar   92  TYR92      -0.0009
     78  CD2       -6.4110  -13.3190   39.7300 C.ar   92  TYR92      -0.0009
     79  CE1       -6.0250  -15.4080   41.5140 C.ar   92  TYR92       0.0417
     80  CE2       -7.3470  -14.3610   39.7960 C.ar   92  TYR92       0.0417
     81  CZ        -7.1490  -15.4020   40.6940 C.ar   92  TYR92       0.1957
     82  OH        -8.0860  -16.4220   40.7980 O.3    92  TYR92      -0.2866
     83  N         -1.9530  -10.2340   41.4420 N.am   93  PHE93      -0.1974
     84  CA        -1.4220   -9.4400   42.5230 C.3    93  PHE93       0.1639
     85  C         -2.6040   -8.8040   43.2150 C.2    93  PHE93       0.2290
     86  O         -3.4400   -8.1530   42.5860 O.2    93  PHE93      -0.2864
     87  CB        -0.4230   -8.4250   41.9840 C.3    93  PHE93       0.0560
     88  CG         0.9720   -8.9840   41.8960 C.ar   93  PHE93      -0.0200
     89  CD1        1.8020   -8.9880   43.0200 C.ar   93  PHE93      -0.0042
     90  CD2        1.4150   -9.6040   40.7310 C.ar   93  PHE93      -0.0042
     91  CE1        3.0480   -9.6080   42.9860 C.ar   93  PHE93      -0.0003
     92  CE2        2.6550  -10.2260   40.6810 C.ar   93  PHE93      -0.0003
     93  CZ         3.4760  -10.2330   41.8100 C.ar   93  PHE93      -0.0000
     94  N         -5.3010  -21.6480   36.3330 N.3   150  ARG150     -0.1245
     95  CA        -5.6740  -20.8410   35.1640 C.3   150  ARG150      0.1563
     96  C         -7.1340  -21.0650   34.7780 C.2   150  ARG150      0.2260
     97  O         -7.6550  -22.1500   35.1340 O.2   150  ARG150     -0.2867
     98  CB        -4.7660  -21.1850   33.9690 C.3   150  ARG150      0.0307
     99  CG        -4.7800  -20.1650   32.8160 C.3   150  ARG150      0.0489
    100  CD        -3.5770  -19.1950   32.8900 C.3   150  ARG150      0.2205
    101  NE        -2.6930  -19.3240   31.7250 N.pl3 150  ARG150     -0.0865
    102  CZ        -1.3960  -19.0130   31.7180 C.cat 150  ARG150      0.5346
    103  NH1       -0.8110  -18.5510   32.8140 N.pl3 150  ARG150      0.1354
    104  NH2       -0.6750  -19.1700   30.6120 N.pl3 150  ARG150      0.1354
@<TRIPOS>BOND
     1    27    26    2
     2    26    25    1
     3    20    19    2
     4    19    24   am
     5    19    18    1
     6    25    24    1
     7    25    28    1
     8    12    11    2
     9    18    21    1
    10    18    17    1
    11   104   102    1
    12    28    29    1
    13    21    22    1
    14     1     2    1
    15    11    17   am
    16    11    10    1
    17    17    23    1
    18   102   101    2
    19   102   103    1
    20   101   100    1
    21    29    31   ar
    22    29    30   ar
    23     9    10    1
    24     9     3   am
    25    22    23    1
    26    10    13    1
    27     2     3    1
    28     2     5    1
    29    13    14    1
    30    31    33   ar
    31     3     4    2
    32    99   100    1
    33    99    98    1
    34    30    32   ar
    35    41    40    2
    36     6     8    1
    37     6     5    1
    38     5     7    1
    39    42    40   am
    40    15    14    1
    41    14    16    1
    42    40    39    1
    43    33    32   ar
    44    98    95    1
    45    96    97    2
    46    96    95    1
    47    39    38    1
    48    50    49    2
    49    95    94    1
    50    47    48    1
    51    38    35    1
    52    62    60    1
    53    49    48    1
    54    49    56   am
    55    48    51    1
    56    60    57    1
    57    60    61    1
    58    57    56    1
    59    57    58    1
    60    35    36    1
    61    35    34    1
    62    51    52    1
    63    63    61    1
    64    52    53    1
    65    36    37    2
    66    58    64   am
    67    58    59    2
    68    64    65    1
    69    53    54    1
    70    54    55    1
    71    67    66    2
    72    69    68    1
    73    45    46    2
    74    45    44    1
    75    78    80   ar
    76    78    76   ar
    77    80    81   ar
    78    66    65    1
    79    66    71   am
    80    65    68    1
    81    44    43    1
    82    68    70    1
    83    72    71    1
    84    72    75    1
    85    72    73    1
    86    76    75    1
    87    76    77   ar
    88    92    90   ar
    89    92    93   ar
    90    81    82    1
    91    81    79   ar
    92    90    88   ar
    93    77    79   ar
    94    83    73   am
    95    83    84    1
    96    73    74    2
    97    93    91   ar
    98    88    87    1
    99    88    89   ar
   100    87    84    1
   101    84    85    1
   102    86    85    2
   103    91    89   ar
