@<TRIPOS>MOLECULE
tmp/3dp3C01.pdb
 124 123 0 0 0
SMALL
GASTEIGER

@<TRIPOS>ATOM
      1  N          7.5720  -19.1860   31.1110 N.3    12  ILE12      -0.1231
      2  CA         6.9850  -19.2000   32.4440 C.3    12  ILE12       0.1692
      3  C          5.9350  -18.1030   32.6620 C.2    12  ILE12       0.2592
      4  O          4.8780  -18.3530   33.2440 O.2    12  ILE12      -0.2718
      5  CB         8.0750  -19.0880   33.5220 C.3    12  ILE12       0.0266
      6  CG1        9.0750  -20.2420   33.3710 C.3    12  ILE12       0.0019
      7  CG2        7.4420  -19.0990   34.9020 C.3    12  ILE12       0.0020
      8  CD1        8.4660  -21.6280   33.4580 C.3    12  ILE12       0.0001
      9  N          6.2250  -16.8910   32.2040 N.am   13  LEU13      -0.1966
     10  CA         5.2780  -15.7900   32.3500 C.3    13  LEU13       0.1713
     11  C          4.3230  -15.7420   31.1610 C.2    13  LEU13       0.2458
     12  O          4.7190  -16.0050   30.0310 O.2    13  LEU13      -0.2730
     13  CB         6.0110  -14.4440   32.4570 C.3    13  LEU13       0.0310
     14  CG         6.9160  -14.1880   33.6640 C.3    13  LEU13       0.0022
     15  CD1        7.3500  -12.7220   33.6740 C.3    13  LEU13       0.0001
     16  CD2        6.1650  -14.5150   34.9430 C.3    13  LEU13       0.0001
     17  N          3.0430  -15.4270   31.4080 N.am   14  PRO14      -0.2716
     18  CA         2.0380  -15.3410   30.3440 C.3    14  PRO14       0.1536
     19  C          2.1230  -13.9970   29.6160 C.2    14  PRO14       0.2598
     20  O          1.6090  -13.8470   28.5110 O.2    14  PRO14      -0.2715
     21  CB         0.7260  -15.4990   31.1040 C.3    14  PRO14       0.0310
     22  CG         1.0140  -14.8090   32.3790 C.3    14  PRO14       0.0237
     23  CD         2.4020  -15.3120   32.7310 C.3    14  PRO14       0.0939
     24  N          2.7740  -13.0290   30.2560 N.am   15  HIS15      -0.1974
     25  CA         2.9360  -11.6870   29.7000 C.3    15  HIS15       0.1656
     26  C          3.6160  -11.6850   28.3360 C.2    15  HIS15       0.2291
     27  O          4.5260  -12.4630   28.0780 O.2    15  HIS15      -0.2864
     28  CB         3.7550  -10.8000   30.6490 C.3    15  HIS15       0.0771
     29  CG         3.1520  -10.6470   32.0100 C.ar   15  HIS15       0.0820
     30  ND1        3.0730  -11.6870   32.9090 N.ar   15  HIS15      -0.2267
     31  CD2        2.5930   -9.5770   32.6210 C.ar   15  HIS15       0.1154
     32  CE1        2.4900  -11.2630   34.0150 C.ar   15  HIS15       0.1986
     33  NE2        2.1900   -9.9870   33.8670 N.ar   15  HIS15      -0.2212
     34  N          6.3160   -8.8340   38.2010 N.3    68  GLN68      -0.1245
     35  CA         6.6410   -9.9400   37.3130 C.3    68  GLN68       0.1566
     36  C          7.8150  -10.7510   37.8620 C.2    68  GLN68       0.2260
     37  O          7.8010  -11.9840   37.8270 O.2    68  GLN68      -0.2867
     38  CB         6.9390   -9.4120   35.9050 C.3    68  GLN68       0.0367
     39  CG         5.6700   -9.0960   35.1150 C.3    68  GLN68       0.0905
     40  CD         5.9250   -8.3860   33.7890 C.2    68  GLN68       0.2608
     41  OE1        6.9130   -8.6530   33.1000 O.2    68  GLN68      -0.2717
     42  NE2        5.0190   -7.4890   33.4200 N.am   68  GLN68      -0.0878
     43  N          6.5930  -12.8410   40.6650 N.3    71  GLY71      -0.1225
     44  CA         5.8330  -13.9620   40.1410 C.3    71  GLY71       0.1811
     45  C          6.6880  -15.0950   39.6020 C.2    71  GLY71       0.2280
     46  O          6.3820  -16.2640   39.8070 O.2    71  GLY71      -0.2866
     47  N          6.5630  -18.8050   41.2640 N.3    75  PHE75      -0.1241
     48  CA         6.3300  -19.9590   40.4120 C.3    75  PHE75       0.1605
     49  C          7.4740  -20.9520   40.3950 C.2    75  PHE75       0.2264
     50  O          7.2630  -22.1420   40.6120 O.2    75  PHE75      -0.2867
     51  CB         6.0410  -19.5610   38.9690 C.3    75  PHE75       0.0534
     52  CG         5.6800  -20.7340   38.1070 C.ar   75  PHE75      -0.0203
     53  CD1        4.3640  -21.1910   38.0460 C.ar   75  PHE75      -0.0042
     54  CD2        6.6690  -21.4500   37.4380 C.ar   75  PHE75      -0.0042
     55  CE1        4.0420  -22.3440   37.3360 C.ar   75  PHE75      -0.0003
     56  CE2        6.3540  -22.6080   36.7260 C.ar   75  PHE75      -0.0003
     57  CZ         5.0380  -23.0550   36.6760 C.ar   75  PHE75      -0.0000
     58  N         -1.2980  -22.0270   35.4690 N.3    89  LYS89      -0.1231
     59  CA        -1.2670  -21.1980   36.6710 C.3    89  LYS89       0.1693
     60  C         -1.3620  -19.7020   36.4070 C.2    89  LYS89       0.2592
     61  O         -1.1070  -19.2190   35.3040 O.2    89  LYS89      -0.2718
     62  CB         0.0340  -21.4510   37.4380 C.3    89  LYS89       0.0285
     63  CG         0.3140  -22.8940   37.7540 C.3    89  LYS89       0.0035
     64  CD        -0.6730  -23.4450   38.7670 C.3    89  LYS89       0.0206
     65  CE        -0.4080  -24.9260   39.0060 C.3    89  LYS89       0.1093
     66  NZ        -1.3120  -25.5190   40.0320 N.3    89  LYS89      -0.1314
     67  N         -1.7310  -18.9660   37.4430 N.am   90  ILE90      -0.1966
     68  CA        -1.8110  -17.5240   37.3410 C.3    90  ILE90       0.1727
     69  C         -1.4780  -16.9800   38.7110 C.2    90  ILE90       0.2616
     70  O         -1.7060  -17.6490   39.7200 O.2    90  ILE90      -0.2715
     71  CB        -3.2340  -17.0300   36.9490 C.3    90  ILE90       0.0290
     72  CG1       -4.1390  -16.9550   38.1710 C.3    90  ILE90       0.0022
     73  CG2       -3.8820  -17.9920   35.9720 C.3    90  ILE90       0.0023
     74  CD1       -5.5250  -16.4370   37.8370 C.3    90  ILE90       0.0001
     75  N         -0.9050  -15.7860   38.7580 N.am   91  VAL91      -0.1963
     76  CA        -0.6320  -15.1820   40.0490 C.3    91  VAL91       0.1727
     77  C         -1.3490  -13.8340   40.0230 C.2    91  VAL91       0.2616
     78  O         -1.0150  -12.9600   39.2200 O.2    91  VAL91      -0.2715
     79  CB         0.9100  -15.0350   40.3340 C.3    91  VAL91       0.0290
     80  CG1        1.6860  -16.0950   39.5820 C.3    91  VAL91       0.0023
     81  CG2        1.4000  -13.6550   40.0010 C.3    91  VAL91       0.0023
     82  N         -2.3920  -13.7030   40.8430 N.am   92  TYR92      -0.1960
     83  CA        -3.1550  -12.4550   40.9270 C.3    92  TYR92       0.1771
     84  C         -2.3910  -11.5820   41.9100 C.2    92  TYR92       0.2619
     85  O         -2.0260  -12.0490   42.9880 O.2    92  TYR92      -0.2715
     86  CB        -4.5410  -12.6450   41.5670 C.3    92  TYR92       0.0574
     87  CG        -5.5580  -13.5500   40.9020 C.ar   92  TYR92      -0.0198
     88  CD1       -6.2160  -13.1670   39.7230 C.ar   92  TYR92      -0.0009
     89  CD2       -5.9550  -14.7420   41.5190 C.ar   92  TYR92      -0.0009
     90  CE1       -7.2590  -13.9540   39.1820 C.ar   92  TYR92       0.0417
     91  CE2       -6.9880  -15.5350   40.9910 C.ar   92  TYR92       0.0417
     92  CZ        -7.6360  -15.1400   39.8260 C.ar   92  TYR92       0.1957
     93  OH        -8.6430  -15.9440   39.2970 O.3    92  TYR92      -0.2866
     94  N         -2.1470  -10.3260   41.5640 N.am   93  PHE93      -0.1974
     95  CA        -1.4900   -9.4470   42.5100 C.3    93  PHE93       0.1639
     96  C         -2.5990   -8.7360   43.2610 C.2    93  PHE93       0.2290
     97  O         -3.4010   -8.0060   42.6790 O.2    93  PHE93      -0.2864
     98  CB        -0.5480   -8.4910   41.7940 C.3    93  PHE93       0.0560
     99  CG         0.8700   -8.9910   41.7760 C.ar   93  PHE93      -0.0200
    100  CD1        1.6730   -8.8730   42.9160 C.ar   93  PHE93      -0.0042
    101  CD2        1.3700   -9.6730   40.6710 C.ar   93  PHE93      -0.0042
    102  CE1        2.9440   -9.4270   42.9590 C.ar   93  PHE93      -0.0003
    103  CE2        2.6430  -10.2350   40.7000 C.ar   93  PHE93      -0.0003
    104  CZ         3.4320  -10.1130   41.8500 C.ar   93  PHE93      -0.0000
    105  N         -5.2460  -21.5490   36.4360 N.3   150  ARG150     -0.1231
    106  CA        -5.7130  -20.8440   35.2440 C.3   150  ARG150      0.1694
    107  C         -6.9090  -21.6450   34.7310 C.2   150  ARG150      0.2588
    108  O         -7.1260  -22.7870   35.1440 O.2   150  ARG150     -0.2718
    109  CB        -4.6100  -20.8340   34.1770 C.3   150  ARG150      0.0321
    110  CG        -4.8060  -19.8440   33.0240 C.3   150  ARG150      0.0489
    111  CD        -3.8010  -18.6970   33.1520 C.3   150  ARG150      0.2205
    112  NE        -2.8170  -18.6740   32.0680 N.pl3 150  ARG150     -0.0865
    113  CZ        -1.5500  -18.2780   32.2030 C.cat 150  ARG150      0.5346
    114  NH1       -1.0830  -17.8720   33.3770 N.pl3 150  ARG150      0.1354
    115  NH2       -0.7500  -18.2520   31.1410 N.pl3 150  ARG150      0.1354
    116  N         -7.7230  -21.0760   33.8170 N.am  151  GLU151     -0.2033
    117  CA        -9.0560  -21.5420   33.4750 C.3   151  GLU151      0.1288
    118  C         -8.4480  -22.6910   32.6710 C.3   151  GLU151      0.2036
    119  O         -9.2960  -23.5940   32.5570 O.3   151  GLU151     -0.2185
    120  CB        -9.4310  -20.8120   32.1070 C.3   151  GLU151      0.0362
    121  CG        -9.8700  -19.3620   32.3330 C.3   151  GLU151      0.1159
    122  CD       -10.8680  -19.2120   33.4710 C.2   151  GLU151      0.3649
    123  OE1      -11.9670  -19.8050   33.3770 O.co2 151  GLU151     -0.2457
    124  OE2      -10.5500  -18.5280   34.4710 O.co2 151  GLU151     -0.2457
@<TRIPOS>BOND
     1    27    26    2
     2    26    25    1
     3    20    19    2
     4    19    24   am
     5    19    18    1
     6    25    24    1
     7    25    28    1
     8    12    11    2
     9    18    21    1
    10    18    17    1
    11    28    29    1
    12    21    22    1
    13     1     2    1
    14   115   113    1
    15    11    17   am
    16    11    10    1
    17    17    23    1
    18    29    31   ar
    19    29    30   ar
    20   112   113    2
    21   112   111    1
    22   120   121    1
    23   120   117    1
    24   113   114    1
    25     9    10    1
    26     9     3   am
    27   121   122    1
    28    10    13    1
    29    22    23    1
    30     2     3    1
    31     2     5    1
    32    13    14    1
    33   119   118    1
    34    31    33   ar
    35     3     4    2
    36   118   117    1
    37    30    32   ar
    38   110   111    1
    39   110   109    1
    40    41    40    2
    41     6     8    1
    42     6     5    1
    43   123   122   ar
    44    42    40   am
    45   122   124   ar
    46   117   116    1
    47     5     7    1
    48    14    15    1
    49    14    16    1
    50    40    39    1
    51   116   107   am
    52    33    32   ar
    53   109   106    1
    54   107   108    2
    55   107   106    1
    56    39    38    1
    57   106   105    1
    58    61    60    2
    59    58    59    1
    60    38    35    1
    61    73    71    1
    62    60    59    1
    63    60    67   am
    64    59    62    1
    65    57    56   ar
    66    57    55   ar
    67    56    54   ar
    68    71    68    1
    69    71    72    1
    70    35    36    1
    71    35    34    1
    72    55    53   ar
    73    68    67    1
    74    68    69    1
    75    54    52   ar
    76    62    63    1
    77    63    64    1
    78    37    36    2
    79    74    72    1
    80    53    52   ar
    81    52    51    1
    82    69    75   am
    83    69    70    2
    84    75    76    1
    85    64    65    1
    86    51    48    1
    87    65    66    1
    88    90    88   ar
    89    90    92   ar
    90    78    77    2
    91    93    92    1
    92    80    79    1
    93    45    46    2
    94    45    44    1
    95    88    87   ar
    96    92    91   ar
    97    81    79    1
    98    77    76    1
    99    77    82   am
   100    76    79    1
   101    44    43    1
   102    49    48    1
   103    49    50    2
   104    48    47    1
   105   101   103   ar
   106   101    99   ar
   107   103   104   ar
   108    82    83    1
   109    87    89   ar
   110    87    86    1
   111    83    86    1
   112    83    84    1
   113    91    89   ar
   114    94    84   am
   115    94    95    1
   116    99    98    1
   117    99   100   ar
   118    98    95    1
   119   104   102   ar
   120    84    85    2
   121    95    96    1
   122    97    96    2
   123   100   102   ar
