@<TRIPOS>MOLECULE
tmp/3dp5A00.pdb
 225 217 0 0 0
SMALL
GASTEIGER

@<TRIPOS>ATOM
      1  N         42.2870    9.5540   26.3880 N.3    26  PHE26      -0.1241
      2  CA        42.8900   10.6000   27.2020 C.3    26  PHE26       0.1605
      3  C         42.5460   12.0030   26.7140 C.2    26  PHE26       0.2264
      4  O         42.1220   12.8470   27.5120 O.2    26  PHE26      -0.2867
      5  CB        44.3940   10.4580   27.2690 C.3    26  PHE26       0.0534
      6  CG        45.0210   11.3540   28.3010 C.ar   26  PHE26      -0.0203
      7  CD1       45.0560   10.9500   29.6370 C.ar   26  PHE26      -0.0042
      8  CD2       45.5470   12.6190   27.9420 C.ar   26  PHE26      -0.0042
      9  CE1       45.6350   11.7950   30.6200 C.ar   26  PHE26      -0.0003
     10  CE2       46.1140   13.4590   28.9090 C.ar   26  PHE26      -0.0003
     11  CZ        46.1510   13.0410   30.2640 C.ar   26  PHE26      -0.0000
     12  N         38.6540   12.6000   27.5630 N.3    29  HIS29      -0.1226
     13  CA        38.1860   12.6400   28.9600 C.3    29  HIS29       0.1752
     14  C         39.1100   13.3490   29.9520 C.2    29  HIS29       0.2596
     15  O         38.6470   13.7530   31.0330 O.2    29  HIS29      -0.2718
     16  CB        37.9090   11.2320   29.4750 C.3    29  HIS29       0.0759
     17  CG        36.9270   10.4620   28.6400 C.ar   29  HIS29       0.0818
     18  ND1       35.5940   10.7920   28.5650 N.ar   29  HIS29      -0.2268
     19  CD2       37.0890    9.3720   27.8510 C.ar   29  HIS29       0.1154
     20  CE1       34.9680    9.9300   27.7760 C.ar   29  HIS29       0.1986
     21  NE2       35.8540    9.0600   27.3300 N.ar   29  HIS29      -0.2212
     22  N         40.3950   13.4830   29.6190 N.am   30  CYS30      -0.1970
     23  CA        41.3730   13.8930   30.6540 C.3    30  CYS30       0.1712
     24  C         42.2380   15.1200   30.3430 C.2    30  CYS30       0.2296
     25  O         42.6440   15.8480   31.2820 O.2    30  CYS30      -0.2864
     26  CB        42.3420   12.7460   30.9390 C.3    30  CYS30       0.0983
     27  SG        41.6410   11.0950   30.9620 S.3    30  CYS30      -0.0798
     28  N         41.8640   18.0080   29.0090 N.3    32  GLY32      -0.1210
     29  CA        41.3230   19.3270   29.3410 C.3    32  GLY32       0.1956
     30  C         41.8580   19.8130   30.6840 C.2    32  GLY32       0.2612
     31  O         42.3660   20.9380   30.7910 O.2    32  GLY32      -0.2717
     32  N         41.8420   18.9250   31.6780 N.am   33  CYS33      -0.1956
     33  CA        42.4080   19.2230   33.0100 C.3    33  CYS33       0.1843
     34  C         43.8570   18.8220   33.2190 C.2    33  CYS33       0.2625
     35  O         44.5230   19.3820   34.1040 O.2    33  CYS33      -0.2714
     36  CB        41.5580   18.5670   34.1010 C.3    33  CYS33       0.0997
     37  SG        39.8510   19.1150   34.0320 S.3    33  CYS33      -0.0797
     38  N         44.3490   17.8670   32.4090 N.am   34  HIS34      -0.1973
     39  CA        45.7250   17.3630   32.5470 C.3    34  HIS34       0.1656
     40  C         46.5600   17.5640   31.2430 C.2    34  HIS34       0.2291
     41  O         47.1100   16.5970   30.6610 O.2    34  HIS34      -0.2864
     42  CB        45.7020   15.8890   32.9450 C.3    34  HIS34       0.0771
     43  CG        45.0850   15.6240   34.2770 C.ar   34  HIS34       0.0820
     44  ND1       45.6710   16.0070   35.4710 N.ar   34  HIS34      -0.2267
     45  CD2       43.9630   14.9380   34.6080 C.ar   34  HIS34       0.1154
     46  CE1       44.9160   15.6020   36.4740 C.ar   34  HIS34       0.1986
     47  NE2       43.8740   14.9510   35.9810 N.ar   34  HIS34      -0.2212
     48  N         48.2260   19.7680   35.4110 N.3    39  ASN39      -0.1240
     49  CA        46.9300   19.8480   36.1090 C.3    39  ASN39       0.1653
     50  C         46.5320   21.3090   36.2290 C.2    39  ASN39       0.2266
     51  O         47.1420   22.0620   36.9770 O.2    39  ASN39      -0.2867
     52  CB        46.9830   19.1770   37.4910 C.3    39  ASN39       0.1155
     53  CG        45.5790   19.0020   38.1520 C.2    39  ASN39       0.2627
     54  OD1       44.6310   19.8280   37.9970 O.2    39  ASN39      -0.2716
     55  ND2       45.4550   17.9110   38.9330 N.am   39  ASN39      -0.0877
     56  N         43.5860   22.4300   37.3400 N.3    41  VAL41      -0.1231
     57  CA        42.5830   22.6280   38.3950 C.3    41  VAL41       0.1692
     58  C         43.2450   22.6680   39.7840 C.2    41  VAL41       0.2592
     59  O         42.9820   23.5790   40.6120 O.2    41  VAL41      -0.2718
     60  CB        41.4150   21.5510   38.2960 C.3    41  VAL41       0.0266
     61  CG1       40.4630   21.5930   39.5230 C.3    41  VAL41       0.0020
     62  CG2       40.6020   21.7480   36.9970 C.3    41  VAL41       0.0020
     63  N         44.1390   21.7020   40.0080 N.am   42  HIS42      -0.1976
     64  CA        45.0110   21.6410   41.1980 C.3    42  HIS42       0.1656
     65  C         46.4750   21.4980   40.7070 C.2    42  HIS42       0.2291
     66  O         46.9580   20.3750   40.5040 O.2    42  HIS42      -0.2864
     67  CB        44.6170   20.4460   42.1030 C.3    42  HIS42       0.0771
     68  CG        45.2880   20.4480   43.4420 C.ar   42  HIS42       0.0820
     69  ND1       46.3580   21.2780   43.7500 N.ar   42  HIS42      -0.2267
     70  CD2       45.0830   19.6770   44.5410 C.ar   42  HIS42       0.1154
     71  CE1       46.7480   21.0470   44.9940 C.ar   42  HIS42       0.1986
     72  NE2       46.0040   20.0670   45.4890 N.ar   42  HIS42      -0.2212
     73  N         48.9950   18.6830   41.6110 N.3    45  LYS45      -0.1231
     74  CA        48.6690   17.2700   41.4030 C.3    45  LYS45       0.1693
     75  C         48.8290   16.8660   39.9360 C.2    45  LYS45       0.2593
     76  O         47.8620   16.4530   39.3110 O.2    45  LYS45      -0.2718
     77  CB        47.2520   16.9850   41.9220 C.3    45  LYS45       0.0285
     78  CG        47.1070   17.0050   43.4630 C.3    45  LYS45       0.0035
     79  CD        47.6110   15.7140   44.0640 C.3    45  LYS45       0.0206
     80  CE        47.2010   15.5240   45.5030 C.3    45  LYS45       0.1093
     81  NZ        47.3620   14.0730   45.8470 N.3    45  LYS45      -0.1314
     82  N         50.0600   16.9770   39.4150 N.am   46  THR46      -0.1939
     83  CA        50.3550   16.6660   37.9990 C.3    46  THR46       0.2028
     84  C         50.3940   15.1400   37.8710 C.2    46  THR46       0.2642
     85  O         50.4100   14.4210   38.8970 O.2    46  THR46      -0.2714
     86  CB        51.7210   17.2620   37.5430 C.3    46  THR46       0.1808
     87  OG1       52.7860   16.5480   38.1650 O.3    46  THR46      -0.2208
     88  CG2       51.8150   18.8260   37.9090 C.3    46  THR46       0.0379
     89  N         50.4440   14.6690   36.6350 N.am   47  LEU47      -0.1977
     90  CA        50.5000   13.2350   36.3270 C.3    47  LEU47       0.1596
     91  C         51.9460   12.7450   36.2090 C.2    47  LEU47       0.2287
     92  O         52.1900   11.6220   35.7710 O.2    47  LEU47      -0.2864
     93  CB        49.7230   12.9560   35.0270 C.3    47  LEU47       0.0297
     94  CG        48.2500   13.3950   34.9460 C.3    47  LEU47       0.0022
     95  CD1       47.5780   12.7290   33.7020 C.3    47  LEU47       0.0001
     96  CD2       47.5200   12.9960   36.2190 C.3    47  LEU47       0.0001
     97  N         55.0140   11.9910   41.1600 N.3    51  ARG51      -0.1231
     98  CA        53.8730   12.5580   41.8730 C.3    51  ARG51       0.1694
     99  C         52.7080   11.5420   42.0100 C.2    51  ARG51       0.2591
    100  O         52.1430   11.4170   43.1010 O.2    51  ARG51      -0.2718
    101  CB        53.4030   13.8830   41.2150 C.3    51  ARG51       0.0321
    102  CG        54.4620   15.0190   41.2210 C.3    51  ARG51       0.0489
    103  CD        55.2720   15.1220   42.5570 C.3    51  ARG51       0.2205
    104  NE        54.3760   15.2320   43.7100 N.pl3  51  ARG51      -0.0865
    105  CZ        54.6080   14.7060   44.9090 C.cat  51  ARG51       0.5346
    106  NH1       55.7370   14.0440   45.1670 N.pl3  51  ARG51       0.1354
    107  NH2       53.7100   14.8710   45.8590 N.pl3  51  ARG51       0.1354
    108  N         52.3770   10.8250   40.9180 N.am   52  ARG52      -0.1980
    109  CA        51.3230    9.7880   40.9420 C.3    52  ARG52       0.1597
    110  C         51.6880    8.7290   41.9710 C.2    52  ARG52       0.2287
    111  O         50.8270    8.2820   42.7460 O.2    52  ARG52      -0.2864
    112  CB        51.1720    9.0250   39.6030 C.3    52  ARG52       0.0334
    113  CG        51.0880    9.8010   38.3410 C.3    52  ARG52       0.0492
    114  CD        50.7010    8.9100   37.1520 C.3    52  ARG52       0.2205
    115  NE        51.6270    7.8320   36.7960 N.pl3  52  ARG52      -0.0865
    116  CZ        52.5840    7.9260   35.8770 C.cat  52  ARG52       0.5346
    117  NH1       52.7980    9.0720   35.2340 N.pl3  52  ARG52       0.1354
    118  NH2       53.3420    6.8680   35.5990 N.pl3  52  ARG52       0.1354
    119  N         51.1960    9.0530   45.8260 N.3    55  ASN55      -0.1240
    120  CA        49.8990    8.6580   46.3510 C.3    55  ASN55       0.1653
    121  C         49.5810    7.1730   46.0860 C.2    55  ASN55       0.2266
    122  O         48.4380    6.7530   46.1650 O.2    55  ASN55      -0.2867
    123  CB        48.8120    9.5700   45.7610 C.3    55  ASN55       0.1155
    124  CG        47.5980    9.6670   46.6570 C.2    55  ASN55       0.2627
    125  OD1       47.6870    9.3800   47.8670 O.2    55  ASN55      -0.2716
    126  ND2       46.4490   10.0680   46.0850 N.am   55  ASN55      -0.0877
    127  N         49.6760    5.5780   43.2520 N.3    57  ILE57      -0.1245
    128  CA        49.1370    5.3240   41.8740 C.3    57  ILE57       0.1561
    129  C         50.3130    4.9550   40.9440 C.2    57  ILE57       0.2260
    130  O         50.9260    5.8370   40.3300 O.2    57  ILE57      -0.2867
    131  CB        48.3120    6.5500   41.2690 C.3    57  ILE57       0.0252
    132  CG1       47.1890    6.9960   42.2380 C.3    57  ILE57       0.0019
    133  CG2       47.7080    6.1840   39.9200 C.3    57  ILE57       0.0019
    134  CD1       46.7470    8.4550   42.0660 C.3    57  ILE57       0.0001
    135  N         45.7500    3.3680   38.0150 N.3    63  VAL63      -0.1245
    136  CA        45.0900    4.4570   37.2420 C.3    63  VAL63       0.1561
    137  C         43.6100    4.0730   37.0940 C.2    63  VAL63       0.2260
    138  O         42.7270    4.9370   37.2620 O.2    63  VAL63      -0.2867
    139  CB        45.8760    4.9350   35.9890 C.3    63  VAL63       0.0252
    140  CG1       45.1020    6.0690   35.3400 C.3    63  VAL63       0.0019
    141  CG2       47.2740    5.3940   36.3950 C.3    63  VAL63       0.0019
    142  N         41.7460    4.4490   40.1720 N.3    66  TYR66      -0.1227
    143  CA        41.7070    5.8200   40.7050 C.3    66  TYR66       0.1736
    144  C         40.5330    6.6210   40.1050 C.2    66  TYR66       0.2595
    145  O         39.8600    7.3760   40.7970 O.2    66  TYR66      -0.2718
    146  CB        43.0530    6.5160   40.4100 C.3    66  TYR66       0.0548
    147  CG        42.9940    7.9550   40.9200 C.ar   66  TYR66      -0.0200
    148  CD1       43.1470    8.2370   42.2780 C.ar   66  TYR66      -0.0009
    149  CD2       42.7200    9.0130   40.0400 C.ar   66  TYR66      -0.0009
    150  CE1       43.0340    9.5690   42.7560 C.ar   66  TYR66       0.0417
    151  CE2       42.6110   10.3490   40.5050 C.ar   66  TYR66       0.0417
    152  CZ        42.7830   10.6050   41.8720 C.ar   66  TYR66       0.1957
    153  OH        42.6330   11.9120   42.3610 O.3    66  TYR66      -0.2866
    154  N         40.3170    6.4880   38.7910 N.am   67  ILE67      -0.1980
    155  CA        39.2880    7.3040   38.0910 C.3    67  ILE67       0.1595
    156  C         37.8430    6.9930   38.5350 C.2    67  ILE67       0.2287
    157  O         36.9510    7.7820   38.2980 O.2    67  ILE67      -0.2864
    158  CB        39.4720    7.2360   36.5310 C.3    67  ILE67       0.0276
    159  CG1       39.0460    5.8650   35.9440 C.3    67  ILE67       0.0022
    160  CG2       40.9280    7.6160   36.1550 C.3    67  ILE67       0.0022
    161  CD1       38.8730    5.8410   34.3610 C.3    67  ILE67       0.0001
    162  N         39.9010   12.4930   43.5750 N.3    71  GLY71      -0.1210
    163  CA        39.9840   13.6080   44.5270 C.3    71  GLY71       0.1940
    164  C         39.1290   14.7980   44.1020 C.2    71  GLY71       0.2454
    165  O         38.5150   14.8040   43.0070 O.2    71  GLY71      -0.2732
    166  N         39.0930   15.8370   44.9610 N.am   72  PRO72      -0.2717
    167  CA        38.2540   17.0400   44.6980 C.3    72  PRO72       0.1536
    168  C         38.5930   17.7190   43.3650 C.2    72  PRO72       0.2599
    169  O         39.7750   17.8290   42.9920 O.2    72  PRO72      -0.2715
    170  CB        38.5160   17.9530   45.9500 C.3    72  PRO72       0.0310
    171  CG        39.0220   16.9420   47.0250 C.3    72  PRO72       0.0237
    172  CD        39.8230   15.9060   46.2490 C.3    72  PRO72       0.0939
    173  N         37.5530   18.0840   42.6280 N.am   73  GLY73      -0.1941
    174  CA        37.6880   18.8190   41.3710 C.3    73  GLY73       0.2014
    175  C         37.8560   17.9050   40.1580 C.2    73  GLY73       0.2639
    176  O         37.9170   18.4080   39.0330 O.2    73  GLY73      -0.2714
    177  N         37.9720   16.5820   40.3840 N.am   74  MET74      -0.1963
    178  CA        37.9890   15.6000   39.2950 C.3    74  MET74       0.1722
    179  C         36.7000   14.7870   39.3060 C.2    74  MET74       0.2458
    180  O         36.2990   14.2760   40.3340 O.2    74  MET74      -0.2730
    181  CB        39.2100   14.6530   39.3900 C.3    74  MET74       0.0427
    182  CG        39.2850   13.5870   38.2890 C.3    74  MET74       0.0599
    183  SD        40.8840   12.8090   38.4260 S.3    74  MET74      -0.1393
    184  CE        40.5670   11.2430   37.5310 C.3    74  MET74       0.0692
    185  N         36.0430   14.6610   38.1580 N.am   75  PRO75      -0.2727
    186  CA        34.8360   13.8470   38.2120 C.3    75  PRO75       0.1402
    187  C         35.1420   12.3490   38.2850 C.2    75  PRO75       0.2269
    188  O         36.1740   11.8930   37.7930 O.2    75  PRO75      -0.2865
    189  CB        34.1340   14.1750   36.8830 C.3    75  PRO75       0.0296
    190  CG        35.2570   14.5460   35.9610 C.3    75  PRO75       0.0237
    191  CD        36.2930   15.1950   36.7950 C.3    75  PRO75       0.0939
    192  N         34.4260    8.5840   37.0150 N.3    77  PHE77      -0.1241
    193  CA        34.0340    8.0250   35.7430 C.3    77  PHE77       0.1605
    194  C         33.5060    6.6280   36.0510 C.2    77  PHE77       0.2264
    195  O         34.2350    5.7730   36.5560 O.2    77  PHE77      -0.2867
    196  CB        35.2370    7.9490   34.8150 C.3    77  PHE77       0.0534
    197  CG        35.8060    9.2860   34.4170 C.ar   77  PHE77      -0.0203
    198  CD1       36.7860    9.9220   35.2090 C.ar   77  PHE77      -0.0042
    199  CD2       35.3590    9.9160   33.2580 C.ar   77  PHE77      -0.0042
    200  CE1       37.3310   11.1810   34.8250 C.ar   77  PHE77      -0.0003
    201  CE2       35.8950   11.1630   32.8480 C.ar   77  PHE77      -0.0003
    202  CZ        36.8730   11.7910   33.6340 C.ar   77  PHE77      -0.0000
    203  N         33.2000    4.8890   30.9850 N.3    82  ILE82      -0.1245
    204  CA        34.5360    4.3450   30.7140 C.3    82  ILE82       0.1561
    205  C         34.5190    2.8710   31.1410 C.2    82  ILE82       0.2260
    206  O         34.7740    2.5350   32.3260 O.2    82  ILE82      -0.2867
    207  CB        35.6770    5.1650   31.4160 C.3    82  ILE82       0.0252
    208  CG1       35.6080    6.6550   31.0240 C.3    82  ILE82       0.0019
    209  CG2       37.0690    4.5530   31.0850 C.3    82  ILE82       0.0019
    210  CD1       36.8210    7.4940   31.4370 C.3    82  ILE82       0.0001
    211  N         43.3550    3.8810   29.0430 N.3    90  ILE90      -0.1245
    212  CA        43.7080    5.2010   29.6230 C.3    90  ILE90       0.1561
    213  C         44.8630    5.0610   30.6050 C.2    90  ILE90       0.2260
    214  O         45.7870    5.8550   30.5670 O.2    90  ILE90      -0.2867
    215  CB        42.4980    5.9490   30.2900 C.3    90  ILE90       0.0252
    216  CG1       41.4280    6.3010   29.2480 C.3    90  ILE90       0.0019
    217  CG2       42.9740    7.2520   31.0340 C.3    90  ILE90       0.0019
    218  CD1       40.1020    6.6890   29.8290 C.3    90  ILE90       0.0001
    219  N         48.5790    6.8070   30.3340 N.3    94  VAL94      -0.1245
    220  CA        49.1430    7.6320   31.4350 C.3    94  VAL94       0.1561
    221  C         50.5470    7.1350   31.7890 C.2    94  VAL94       0.2260
    222  O         51.4980    7.9160   31.8680 O.2    94  VAL94      -0.2867
    223  CB        48.2210    7.6920   32.7050 C.3    94  VAL94       0.0252
    224  CG1       48.9890    8.2950   33.9070 C.3    94  VAL94       0.0019
    225  CG2       46.8990    8.4780   32.3870 C.3    94  VAL94       0.0019
@<TRIPOS>BOND
     1     1     2    1
     2     3     2    1
     3     3     4    2
     4     2     5    1
     5     5     6    1
     6    21    20   ar
     7    21    19   ar
     8    12    13    1
     9    20    18   ar
    10    19    17   ar
    11     8     6   ar
    12     8    10   ar
    13     6     7   ar
    14    18    17   ar
    15    17    16    1
    16    10    11   ar
    17    13    16    1
    18    13    14    1
    19    28    29    1
    20   211   212    1
    21   216   218    1
    22   216   215    1
    23    29    30    1
    24    22    14   am
    25    22    23    1
    26   212   215    1
    27   212   213    1
    28     7     9   ar
    29    14    15    2
    30    11     9   ar
    31   215   217    1
    32   219   220    1
    33    24    23    1
    34    24    25    2
    35   214   213    2
    36    23    26    1
    37    41    40    2
    38    30    31    2
    39    30    32   am
    40   204   203    1
    41   204   205    1
    42   204   207    1
    43    26    27    1
    44   208   207    1
    45   208   210    1
    46   209   207    1
    47   205   206    2
    48    40    39    1
    49   220   221    1
    50   220   223    1
    51    32    33    1
    52   221   222    2
    53   225   223    1
    54    38    39    1
    55    38    34   am
    56    39    42    1
    57   223   224    1
    58   201   199   ar
    59   201   202   ar
    60    42    43    1
    61    33    34    1
    62    33    36    1
    63    34    35    2
    64   199   197   ar
    65   202   200   ar
    66    95    94    1
    67    37    36    1
    68    43    45   ar
    69    43    44   ar
    70   161   159    1
    71   197   196    1
    72   197   198   ar
    73    45    47   ar
    74   196   193    1
    75   200   198   ar
    76    94    93    1
    77    94    96    1
    78    93    90    1
    79   117   116    1
    80   140   139    1
    81    48    49    1
    82    44    46   ar
    83   118   116    1
    84   193   194    1
    85   193   192    1
    86    92    91    2
    87   116   115    2
    88   159   158    1
    89   190   191    1
    90   190   189    1
    91    47    46   ar
    92   139   141    1
    93   139   136    1
    94   194   195    2
    95    49    50    1
    96    49    52    1
    97   160   158    1
    98    91    90    1
    99    50    51    2
   100    90    89    1
   101   158   155    1
   102    89    84   am
   103   191   185    1
   104   115   114    1
   105   189   186    1
   106    62    60    1
   107   137   136    1
   108   137   138    2
   109   114   113    1
   110   136   135    1
   111    56    57    1
   112    52    53    1
   113   184   183    1
   114    86    88    1
   115    86    83    1
   116    86    87    1
   117   188   187    2
   118    84    83    1
   119    84    85    2
   120    54    53    2
   121    83    82    1
   122   155   156    1
   123   155   154    1
   124    53    55   am
   125   185   186    1
   126   185   179   am
   127   186   187    1
   128   182   183    1
   129   182   181    1
   130    60    57    1
   131    60    61    1
   132   157   156    2
   133   113   112    1
   134    57    58    1
   135   154   144   am
   136   176   175    2
   137   178   179    1
   138   178   181    1
   139   178   177    1
   140   179   180    2
   141    76    75    2
   142    82    75   am
   143   112   109    1
   144    58    63   am
   145    58    59    2
   146   133   131    1
   147    75    74    1
   148    63    64    1
   149   149   151   ar
   150   149   147   ar
   151   144   143    1
   152   144   145    2
   153   175   177   am
   154   175   174    1
   155   142   143    1
   156   130   129    2
   157   146   143    1
   158   146   147    1
   159    66    65    2
   160   151   152   ar
   161    65    64    1
   162   108   109    1
   163   108    99   am
   164   147   148   ar
   165   109   110    1
   166   129   128    1
   167    97    98    1
   168    64    67    1
   169   101   102    1
   170   101    98    1
   171   102   103    1
   172   131   128    1
   173   131   132    1
   174   174   173    1
   175    74    73    1
   176    74    77    1
   177   152   153    1
   178   152   150   ar
   179    98    99    1
   180   128   127    1
   181    77    78    1
   182   110   111    2
   183    99   100    2
   184   134   132    1
   185    67    68    1
   186   148   150   ar
   187   103   104    1
   188   173   168   am
   189   169   168    2
   190   165   164    2
   191   168   167    1
   192    68    69   ar
   193    68    70   ar
   194    78    79    1
   195   162   163    1
   196   104   105    2
   197    69    71   ar
   198    79    80    1
   199   164   163    1
   200   164   166   am
   201    70    72   ar
   202   167   166    1
   203   167   170    1
   204   105   106    1
   205   105   107    1
   206   166   172    1
   207    71    72   ar
   208    80    81    1
   209   123   120    1
   210   123   124    1
   211   119   120    1
   212   170   171    1
   213   126   124   am
   214   121   122    2
   215   121   120    1
   216   172   171    1
   217   124   125    2
