@<TRIPOS>MOLECULE
tmp/3dp9A00.pdb
 142 134 0 0 0
SMALL
GASTEIGER

@<TRIPOS>ATOM
      1  N         -2.7310    5.0800   13.0390 N.3     7  ALA7       -0.1231
      2  CA        -1.6390    5.5120   12.1600 C.3     7  ALA7        0.1694
      3  C         -1.9870    6.7560   11.3190 C.2     7  ALA7        0.2591
      4  O         -1.2280    7.7290   11.2710 O.2     7  ALA7       -0.2718
      5  CB        -1.2220    4.3710   11.2660 C.3     7  ALA7        0.0304
      6  N         -3.1500    6.7180   10.6810 N.am    8  MET8       -0.1979
      7  CA        -3.5550    7.7390    9.7330 C.3     8  MET8        0.1605
      8  C         -4.5150    8.7640   10.3460 C.2     8  MET8        0.2287
      9  O         -5.2730    8.4600   11.2920 O.2     8  MET8       -0.2864
     10  CB        -4.1940    7.0700    8.5090 C.3     8  MET8        0.0413
     11  CG        -3.3510    5.9500    7.9060 C.3     8  MET8        0.0598
     12  SD        -4.0670    5.1300    6.4600 S.3     8  MET8       -0.1393
     13  CE        -3.8800    6.4120    5.2140 C.3     8  MET8        0.0692
     14  N         -8.0310    7.5360   10.3380 N.3    11  GLU11      -0.1245
     15  CA        -8.3160    6.5480   11.3890 C.3    11  GLU11       0.1567
     16  C         -8.5420    7.1450   12.7860 C.2    11  GLU11       0.2260
     17  O         -9.0480    6.4590   13.6810 O.2    11  GLU11      -0.2867
     18  CB        -7.1960    5.4970   11.4390 C.3    11  GLU11       0.0388
     19  CG        -7.1730    4.5940   10.2150 C.3    11  GLU11       0.1160
     20  CD        -5.8910    3.7800   10.0660 C.2    11  GLU11       0.3649
     21  OE1       -4.8140    4.2450   10.5190 O.co2  11  GLU11      -0.2457
     22  OE2       -5.9640    2.6720    9.4720 O.co2  11  GLU11      -0.2457
     23  N          2.4220    5.9730    9.7460 N.3    49  ILE49      -0.1245
     24  CA         2.4030    4.6060    9.2050 C.3    49  ILE49       0.1561
     25  C          3.6640    3.7510    9.4520 C.2    49  ILE49       0.2260
     26  O          4.8060    4.2390    9.4020 O.2    49  ILE49      -0.2867
     27  CB         2.0100    4.6200    7.7140 C.3    49  ILE49       0.0252
     28  CG1        0.6570    5.3320    7.5450 C.3    49  ILE49       0.0019
     29  CG2        1.9530    3.1910    7.1600 C.3    49  ILE49       0.0019
     30  CD1        0.2530    5.6020    6.1070 C.3    49  ILE49       0.0001
     31  N         -7.8330    0.5380   10.1780 N.3    75  SER75      -0.1202
     32  CA        -8.1500   -0.4030    9.0910 C.3    75  SER75       0.2020
     33  C         -7.3130   -1.7000    9.1320 C.2    75  SER75       0.2619
     34  O         -6.3520   -1.7890    9.8590 O.2    75  SER75      -0.2717
     35  CB        -7.9880    0.2920    7.7280 C.3    75  SER75       0.2103
     36  OG        -6.6570    0.7770    7.5450 O.3    75  SER75      -0.2182
     37  N         -7.6880   -2.7020    8.3430 N.am   76  ALA76      -0.1965
     38  CA        -6.8980   -3.9370    8.2300 C.3    76  ALA76       0.1728
     39  C         -7.1730   -4.6770    6.9150 C.2    76  ALA76       0.2616
     40  O         -8.2160   -4.5040    6.3030 O.2    76  ALA76      -0.2715
     41  CB        -7.1430   -4.8630    9.4520 C.3    76  ALA76       0.0334
     42  N         -6.2290   -5.4960    6.4750 N.am   77  GLY77      -0.1955
     43  CA        -6.4670   -6.3680    5.3230 C.3    77  GLY77       0.1869
     44  C         -6.9630   -7.7280    5.7720 C.2    77  GLY77       0.2309
     45  O         -6.2970   -8.4070    6.5400 O.2    77  GLY77      -0.2863
     46  N          4.9130   -3.8700    5.1550 N.3   150  ALA150     -0.1231
     47  CA         4.4300   -3.9680    3.7800 C.3   150  ALA150      0.1694
     48  C          2.9120   -3.8540    3.6790 C.2   150  ALA150      0.2592
     49  O          2.1770   -4.3440    4.5410 O.2   150  ALA150     -0.2718
     50  CB         4.8880   -5.2780    3.1350 C.3   150  ALA150      0.0304
     51  N          2.4480   -3.1930    2.6220 N.am  151  PHE151     -0.1962
     52  CA         1.0440   -3.2940    2.2500 C.3   151  PHE151      0.1771
     53  C          0.8770   -4.5570    1.4230 C.2   151  PHE151      0.2619
     54  O          1.4700   -4.6900    0.3320 O.2   151  PHE151     -0.2715
     55  CB         0.5670   -2.0660    1.4730 C.3   151  PHE151      0.0574
     56  CG        -0.9360   -1.9900    1.3250 C.ar  151  PHE151     -0.0200
     57  CD1       -1.5630   -2.4530    0.1580 C.ar  151  PHE151     -0.0042
     58  CD2       -1.7220   -1.4540    2.3440 C.ar  151  PHE151     -0.0042
     59  CE1       -2.9500   -2.3850    0.0080 C.ar  151  PHE151     -0.0003
     60  CE2       -3.1170   -1.3670    2.2080 C.ar  151  PHE151     -0.0003
     61  CZ        -3.7330   -1.8410    1.0410 C.ar  151  PHE151     -0.0000
     62  N          0.0860   -5.4810    1.9560 N.am  152  VAL152     -0.1977
     63  CA        -0.1170   -6.7940    1.3470 C.3   152  VAL152      0.1596
     64  C         -1.1660   -6.7220    0.2410 C.2   152  VAL152      0.2287
     65  O         -2.3270   -6.4380    0.5100 O.2   152  VAL152     -0.2864
     66  CB        -0.5310   -7.8460    2.4140 C.3   152  VAL152      0.0276
     67  CG1       -0.8420   -9.2140    1.7710 C.3   152  VAL152      0.0022
     68  CG2        0.5560   -7.9780    3.4630 C.3   152  VAL152      0.0022
     69  N         -4.2920   -8.5220    8.6670 N.3   171  VAL171     -0.1231
     70  CA        -2.9630   -8.0250    8.4100 C.3   171  VAL171      0.1692
     71  C         -2.9640   -6.4890    8.5060 C.2   171  VAL171      0.2592
     72  O         -3.9630   -5.8430    8.2010 O.2   171  VAL171     -0.2718
     73  CB        -2.5150   -8.5850    7.0380 C.3   171  VAL171      0.0266
     74  CG1       -1.8740   -7.5560    6.1510 C.3   171  VAL171      0.0020
     75  CG2       -1.6410   -9.8230    7.2300 C.3   171  VAL171      0.0020
     76  N         -1.8740   -5.9170    9.0040 N.am  172  GLU172     -0.1966
     77  CA        -1.6790   -4.4600    8.9790 C.3   172  GLU172      0.1733
     78  C         -0.2110   -4.1210    9.2460 C.2   172  GLU172      0.2616
     79  O          0.6530   -4.9810    9.0770 O.2   172  GLU172     -0.2715
     80  CB        -2.6700   -3.6910    9.8820 C.3   172  GLU172      0.0429
     81  CG        -2.9010   -4.3320   11.2250 C.3   172  GLU172      0.1163
     82  CD        -1.6030   -4.4590   11.9680 C.2   172  GLU172      0.3649
     83  OE1       -1.1270   -3.4290   12.4870 O.co2 172  GLU172     -0.2457
     84  OE2       -1.0450   -5.5720   11.9960 O.co2 172  GLU172     -0.2457
     85  N          0.0700   -2.8760    9.6140 N.am  173  MET173     -0.1963
     86  CA         1.4370   -2.3720    9.5720 C.3   173  MET173      0.1736
     87  C          1.9090   -1.6900   10.8450 C.2   173  MET173      0.2616
     88  O          2.9530   -1.0710   10.8320 O.2   173  MET173     -0.2715
     89  CB         1.6100   -1.4080    8.3900 C.3   173  MET173      0.0427
     90  CG         1.4440   -2.0740    7.0130 C.3   173  MET173      0.0599
     91  SD         1.4080   -0.8840    5.6710 S.3   173  MET173     -0.1393
     92  CE         3.0730   -0.2160    5.7400 C.3   173  MET173      0.0692
     93  N          1.1600   -1.8030   11.9400 N.am  174  GLU174     -0.1977
     94  CA         1.5660   -1.1580   13.1970 C.3   174  GLU174      0.1602
     95  C          1.3560   -2.0060   14.4610 C.2   174  GLU174      0.2287
     96  O          2.0730   -1.8290   15.4600 O.2   174  GLU174     -0.2864
     97  CB         0.8290    0.1880   13.3870 C.3   174  GLU174      0.0415
     98  CG         1.0680    1.2610   12.3100 C.3   174  GLU174      0.1163
     99  CD         0.2260    1.0690   11.0520 C.2   174  GLU174      0.3649
    100  OE1       -0.9130    0.5530   11.1370 O.co2 174  GLU174     -0.2457
    101  OE2        0.7150    1.4290    9.9610 O.co2 174  GLU174     -0.2457
    102  N         -9.6790   -3.3870   14.9060 N.3   193  ARG193     -0.1245
    103  CA        -9.6560   -2.7040   13.6230 C.3   193  ARG193      0.1563
    104  C        -10.7780   -3.2310   12.7460 C.2   193  ARG193      0.2260
    105  O        -11.4270   -4.2270   13.0830 O.2   193  ARG193     -0.2867
    106  CB        -8.3160   -2.9350   12.9250 C.3   193  ARG193      0.0307
    107  CG        -7.1000   -2.3500   13.6500 C.3   193  ARG193      0.0489
    108  CD        -5.8250   -2.8640   12.9900 C.3   193  ARG193      0.2205
    109  NE        -4.6080   -2.2060   13.4560 N.pl3 193  ARG193     -0.0865
    110  CZ        -3.9830   -1.2470   12.7800 C.cat 193  ARG193      0.5346
    111  NH1       -4.4740   -0.8320   11.6230 N.pl3 193  ARG193      0.1354
    112  NH2       -2.8700   -0.7070   13.2550 N.pl3 193  ARG193      0.1354
    113  N        -10.8580   -3.1390    5.3380 N.3   196  SER196     -0.1202
    114  CA       -10.9150   -2.1560    4.2540 C.3   196  SER196      0.2020
    115  C        -10.6920   -2.8470    2.9160 C.2   196  SER196      0.2618
    116  O        -10.9700   -2.2850    1.8530 O.2   196  SER196     -0.2717
    117  CB        -9.8430   -1.0850    4.4820 C.3   196  SER196      0.2103
    118  OG        -8.5450   -1.6640    4.6210 O.3   196  SER196     -0.2182
    119  N        -10.1980   -4.0830    2.9860 N.am  197  ASP197     -0.1973
    120  CA        -9.7650   -4.8300    1.8240 C.3   197  ASP197      0.1709
    121  C         -9.3820   -6.2550    2.2100 C.2   197  ASP197      0.2293
    122  O         -9.2660   -6.5820    3.3920 O.2   197  ASP197     -0.2864
    123  CB        -8.5710   -4.1230    1.1600 C.3   197  ASP197      0.1436
    124  CG        -7.3540   -4.0570    2.0650 C.2   197  ASP197      0.3671
    125  OD1       -6.4340   -4.8730    1.8710 O.co2 197  ASP197     -0.2456
    126  OD2       -7.3160   -3.2010    2.9720 O.co2 197  ASP197     -0.2456
    127  N         -6.5100   -7.8370    0.9810 N.3   199  ALA199     -0.1245
    128  CA        -5.0810   -8.0680    0.7630 C.3   199  ALA199      0.1562
    129  C         -4.7280   -8.7920   -0.5590 C.2   199  ALA199      0.2260
    130  O         -3.8960   -9.7090   -0.5820 O.2   199  ALA199     -0.2867
    131  CB        -4.4890   -8.8000    1.9730 C.3   199  ALA199      0.0290
    132  N         -9.0940   -0.4220   -0.5310 N.3   207  PHE207     -0.1241
    133  CA        -8.6250    0.4320    0.5690 C.3   207  PHE207      0.1605
    134  C         -8.9980    1.8870    0.3080 C.2   207  PHE207      0.2264
    135  O         -9.4930    2.5840    1.2000 O.2   207  PHE207     -0.2867
    136  CB        -7.1100    0.2840    0.7580 C.3   207  PHE207      0.0534
    137  CG        -6.5450    1.1010    1.8910 C.ar  207  PHE207     -0.0203
    138  CD1       -5.7510    2.2120    1.6330 C.ar  207  PHE207     -0.0042
    139  CD2       -6.7700    0.7340    3.2140 C.ar  207  PHE207     -0.0042
    140  CE1       -5.2070    2.9540    2.6740 C.ar  207  PHE207     -0.0003
    141  CE2       -6.2500    1.4770    4.2630 C.ar  207  PHE207     -0.0003
    142  CZ        -5.4670    2.5900    3.9960 C.ar  207  PHE207     -0.0000
@<TRIPOS>BOND
     1   130   129    2
     2   129   128    1
     3   132   133    1
     4    59    57   ar
     5    59    61   ar
     6    57    56   ar
     7    64    65    2
     8    64    63    1
     9   134   133    1
    10   134   135    2
    11    54    53    2
    12   133   136    1
    13   136   137    1
    14   128   127    1
    15   128   131    1
    16    61    60   ar
    17   123   120    1
    18   123   124    1
    19    56    55    1
    20    56    58   ar
    21    63    62    1
    22    63    66    1
    23    53    62   am
    24    53    52    1
    25    55    52    1
    26   138   137   ar
    27   138   140   ar
    28    67    66    1
    29   120   121    1
    30   120   119    1
    31   116   115    2
    32   125   124   ar
    33   137   139   ar
    34   124   126   ar
    35    60    58   ar
    36   121   122    2
    37    52    51    1
    38    66    68    1
    39    51    48   am
    40   140   142   ar
    41   115   119   am
    42   115   114    1
    43    50    47    1
    44   139   141   ar
    45    48    47    1
    46    48    49    2
    47    47    46    1
    48   142   141   ar
    49   114   117    1
    50   114   113    1
    51   117   118    1
    52    13    12    1
    53    43    44    1
    54    43    42    1
    55    91    92    1
    56    91    90    1
    57    44    45    2
    58    30    28    1
    59    74    73    1
    60    40    39    2
    61    12    11    1
    62    42    39   am
    63    39    38    1
    64    90    89    1
    65    73    75    1
    66    73    70    1
    67    29    27    1
    68    36    35    1
    69    28    27    1
    70    27    24    1
    71    35    32    1
    72    11    10    1
    73    72    71    2
    74    38    37    1
    75    38    41    1
    76    37    33   am
    77    89    86    1
    78    70    71    1
    79    70    69    1
    80    71    76   am
    81    10     7    1
    82    77    76    1
    83    77    78    1
    84    77    80    1
    85    79    78    2
    86    32    33    1
    87    32    31    1
    88    33    34    2
    89    24    25    1
    90    24    23    1
    91    78    85   am
    92    26    25    2
    93    22    20   ar
    94    86    85    1
    95    86    87    1
    96     7     8    1
    97     7     6    1
    98    80    81    1
    99   101    99   ar
   100    20    19    1
   101    20    21   ar
   102    19    18    1
   103    14    15    1
   104     8     9    2
   105     6     3   am
   106    88    87    2
   107    87    93   am
   108    99   100   ar
   109    99    98    1
   110    81    82    1
   111     5     2    1
   112     4     3    2
   113     3     2    1
   114    15    18    1
   115    15    16    1
   116   111   110    1
   117    93    94    1
   118    82    84   ar
   119    82    83   ar
   120     2     1    1
   121    98    97    1
   122   104   105    2
   123   104   103    1
   124   110   112    1
   125   110   109    2
   126    16    17    2
   127   106   103    1
   128   106   107    1
   129   108   109    1
   130   108   107    1
   131    94    97    1
   132    94    95    1
   133   103   102    1
   134    95    96    2
