@<TRIPOS>MOLECULE
tmp/3dpcB00.pdb
 190 184 0 0 0
SMALL
GASTEIGER

@<TRIPOS>ATOM
      1  N          6.8350   10.4990   -2.3630 N.3    50  ASP50      -0.1239
      2  CA         7.9460   11.3800   -2.7240 C.3    50  ASP50       0.1674
      3  C          8.9320   11.7300   -1.6150 C.2    50  ASP50       0.2266
      4  O          8.5650   12.3100   -0.5850 O.2    50  ASP50      -0.2867
      5  CB         7.4260   12.6780   -3.3480 C.3    50  ASP50       0.1410
      6  CG         8.4810   13.3780   -4.1870 C.2    50  ASP50       0.3668
      7  OD1        9.6550   12.9350   -4.1530 O.co2  50  ASP50      -0.2456
      8  OD2        8.1410   14.3650   -4.8770 O.co2  50  ASP50      -0.2456
      9  N         17.2190   11.3930  -10.7210 N.3   100  ASP100     -0.1225
     10  CA        16.1370   12.3690  -10.6080 C.3   100  ASP100      0.1805
     11  C         14.8700   11.5150  -10.6380 C.2   100  ASP100      0.2597
     12  O         14.9530   10.3040  -10.8280 O.2   100  ASP100     -0.2718
     13  CB        16.1870   13.4020  -11.7520 C.3   100  ASP100      0.1424
     14  CG        15.4030   12.9930  -12.9810 C.2   100  ASP100      0.3668
     15  OD1       15.5910   11.8650  -13.4890 O.co2 100  ASP100     -0.2456
     16  OD2       14.6080   13.8330  -13.4630 O.co2 100  ASP100     -0.2456
     17  N         13.7090   12.1180  -10.4240 N.am  101  LEU101     -0.1979
     18  CA        12.4630   11.3600  -10.4150 C.3   101  LEU101      0.1596
     19  C         12.2040   10.6340  -11.7230 C.2   101  LEU101      0.2287
     20  O         11.8140    9.4620  -11.7250 O.2   101  LEU101     -0.2864
     21  CB        11.2760   12.2750  -10.1310 C.3   101  LEU101      0.0297
     22  CG        10.3780   11.8730   -8.9610 C.3   101  LEU101      0.0022
     23  CD1        9.1270   12.7420   -8.9540 C.3   101  LEU101      0.0001
     24  CD2        9.9970   10.4140   -9.0760 C.3   101  LEU101      0.0001
     25  N         18.9830    8.3490  -18.3080 N.3   115  TYR115     -0.1227
     26  CA        19.5560    9.5910  -17.7900 C.3   115  TYR115      0.1736
     27  C         18.5620   10.4560  -17.0550 C.2   115  TYR115      0.2595
     28  O         17.3690   10.4210  -17.3410 O.2   115  TYR115     -0.2718
     29  CB        20.1860   10.4050  -18.9150 C.3   115  TYR115      0.0548
     30  CG        19.2350   10.7370  -20.0390 C.ar  115  TYR115     -0.0200
     31  CD1       18.9020    9.7870  -20.9960 C.ar  115  TYR115     -0.0009
     32  CD2       18.6610   12.0010  -20.1410 C.ar  115  TYR115     -0.0009
     33  CE1       18.0260   10.0880  -22.0250 C.ar  115  TYR115      0.0417
     34  CE2       17.7840   12.3090  -21.1570 C.ar  115  TYR115      0.0417
     35  CZ        17.4720   11.3500  -22.0950 C.ar  115  TYR115      0.1957
     36  OH        16.5880   11.6450  -23.1020 O.3   115  TYR115     -0.2866
     37  N         19.0600   11.2320  -16.0980 N.am  116  ASN116     -0.1960
     38  CA        18.1980   12.1160  -15.3320 C.3   116  ASN116      0.1819
     39  C         17.4180   12.9470  -16.3310 C.2   116  ASN116      0.2621
     40  O         17.9990   13.4920  -17.2690 O.2   116  ASN116     -0.2715
     41  CB        19.0180   13.0230  -14.4200 C.3   116  ASN116      0.1195
     42  CG        19.7240   12.2550  -13.3160 C.2   116  ASN116      0.2630
     43  OD1       19.3750   11.1130  -13.0250 O.2   116  ASN116     -0.2716
     44  ND2       20.7100   12.8860  -12.6830 N.am  116  ASN116     -0.0877
     45  N         16.0980   13.0040  -16.1350 N.am  117  GLY117     -0.1954
     46  CA        15.2250   13.7580  -17.0190 C.3   117  GLY117      0.1869
     47  C         14.4240   12.8790  -17.9700 C.2   117  GLY117      0.2309
     48  O         13.2590   13.1500  -18.2630 O.2   117  GLY117     -0.2863
     49  N          3.7150   15.1680  -14.0780 N.3   152  ASP152     -0.1239
     50  CA         4.9920   15.0420  -13.3910 C.3   152  ASP152      0.1674
     51  C          5.5200   13.6160  -13.6040 C.2   152  ASP152      0.2266
     52  O          4.7550   12.6990  -13.9040 O.2   152  ASP152     -0.2867
     53  CB         4.8360   15.3320  -11.9020 C.3   152  ASP152      0.1410
     54  CG         6.1080   15.8490  -11.2790 C.2   152  ASP152      0.3668
     55  OD1        7.1610   15.7940  -11.9470 O.co2 152  ASP152     -0.2456
     56  OD2        6.0580   16.3070  -10.1160 O.co2 152  ASP152     -0.2456
     57  N         12.0290   12.6360  -24.2490 N.3   163  THR163     -0.1203
     58  CA        13.4340   12.7740  -23.9250 C.3   163  THR163      0.1994
     59  C         13.6750   13.7150  -22.7420 C.2   163  THR163      0.2619
     60  O         14.8000   13.8290  -22.2560 O.2   163  THR163     -0.2717
     61  CB        14.2300   13.2360  -25.1610 C.3   163  THR163      0.1784
     62  OG1       13.7290   14.4970  -25.6220 O.3   163  THR163     -0.2211
     63  CG2       14.0900   12.2100  -26.2750 C.3   163  THR163      0.0376
     64  N         12.6170   14.3840  -22.2830 N.am  164  SER164     -0.1937
     65  CA        12.7170   15.2990  -21.1410 C.3   164  SER164      0.2055
     66  C         11.3930   15.3710  -20.3820 C.2   164  SER164      0.2643
     67  O         10.3280   15.5130  -20.9900 O.2   164  SER164     -0.2714
     68  CB        13.1090   16.7150  -21.5910 C.3   164  SER164      0.2130
     69  OG        13.1410   17.6040  -20.4790 O.3   164  SER164     -0.2179
     70  N         11.4650   15.2860  -19.0540 N.am  165  ARG165     -0.1963
     71  CA        10.2640   15.3290  -18.2240 C.3   165  ARG165      0.1729
     72  C          9.5890   16.6970  -18.2900 C.2   165  ARG165      0.2616
     73  O          8.4310   16.8500  -17.9100 O.2   165  ARG165     -0.2715
     74  CB        10.6120   14.9960  -16.7730 C.3   165  ARG165      0.0348
     75  CG        11.3330   16.1110  -16.0320 C.3   165  ARG165      0.0492
     76  CD        11.8960   15.6290  -14.7010 C.3   165  ARG165      0.2205
     77  NE        10.9260   15.6940  -13.6100 N.pl3 165  ARG165     -0.0865
     78  CZ        11.2020   15.3690  -12.3510 C.cat 165  ARG165      0.5346
     79  NH1       12.4190   14.9510  -12.0350 N.pl3 165  ARG165      0.1354
     80  NH2       10.2720   15.4810  -11.4110 N.pl3 165  ARG165      0.1354
     81  N         10.3230   17.6900  -18.7810 N.am  166  LYS166     -0.1977
     82  CA         9.7980   19.0470  -18.8920 C.3   166  LYS166      0.1596
     83  C          8.6450   19.1170  -19.8890 C.2   166  LYS166      0.2287
     84  O          7.7530   19.9560  -19.7630 O.2   166  LYS166     -0.2864
     85  CB        10.9070   20.0190  -19.3010 C.3   166  LYS166      0.0298
     86  CG        11.7640   20.5040  -18.1440 C.3   166  LYS166      0.0038
     87  CD        12.6780   21.6410  -18.5720 C.3   166  LYS166      0.0206
     88  CE        13.8840   21.7550  -17.6540 C.3   166  LYS166      0.1093
     89  NZ        14.9310   22.6500  -18.2200 N.3   166  LYS166     -0.1314
     90  N          5.6530   18.7170  -20.7450 N.3   168  TYR168     -0.1241
     91  CA         4.2930   18.5450  -20.2430 C.3   168  TYR168      0.1605
     92  C          3.2040   18.5390  -21.3270 C.2   168  TYR168      0.2264
     93  O          2.3970   17.6070  -21.4120 O.2   168  TYR168     -0.2867
     94  CB         3.9940   19.6430  -19.2280 C.3   168  TYR168      0.0534
     95  CG         4.4340   19.3280  -17.8140 C.ar  168  TYR168     -0.0201
     96  CD1        5.6330   18.6520  -17.5560 C.ar  168  TYR168     -0.0009
     97  CD2        3.6490   19.7240  -16.7220 C.ar  168  TYR168     -0.0009
     98  CE1        6.0350   18.3760  -16.2370 C.ar  168  TYR168      0.0417
     99  CE2        4.0390   19.4600  -15.4140 C.ar  168  TYR168      0.0417
    100  CZ         5.2270   18.7860  -15.1740 C.ar  168  TYR168      0.1957
    101  OH         5.5800   18.5160  -13.8680 O.3   168  TYR168     -0.2866
    102  N          9.5890   22.6780  -28.1620 N.3   175  GLU175     -0.1231
    103  CA        10.9550   23.1760  -28.0360 C.3   175  GLU175      0.1699
    104  C         11.9580   22.2900  -27.3150 C.2   175  GLU175      0.2592
    105  O         13.1280   22.2640  -27.6950 O.2   175  GLU175     -0.2718
    106  CB        10.9770   24.5700  -27.4070 C.3   175  GLU175      0.0402
    107  CG        10.3690   24.6590  -26.0440 C.3   175  GLU175      0.1161
    108  CD        10.7020   25.9730  -25.3680 C.2   175  GLU175      0.3649
    109  OE1       11.8840   26.1860  -25.0210 O.co2 175  GLU175     -0.2457
    110  OE2        9.7870   26.8010  -25.1870 O.co2 175  GLU175     -0.2457
    111  N         11.5230   21.5520  -26.3000 N.am  176  LYS176     -0.1980
    112  CA        12.4530   20.7050  -25.5640 C.3   176  LYS176      0.1596
    113  C         12.4810   19.2430  -25.9730 C.2   176  LYS176      0.2287
    114  O         13.4380   18.5430  -25.6620 O.2   176  LYS176     -0.2864
    115  CB        12.1810   20.8140  -24.0680 C.3   176  LYS176      0.0298
    116  CG        12.2660   22.2350  -23.5500 C.3   176  LYS176      0.0038
    117  CD        11.9690   22.2610  -22.0700 C.3   176  LYS176      0.0206
    118  CE        11.4380   23.6120  -21.6330 C.3   176  LYS176      0.1093
    119  NZ        12.3740   24.7150  -21.9920 N.3   176  LYS176     -0.1314
    120  N          7.7380   22.4150   -5.5480 N.3   327  LYS327     -0.1245
    121  CA         8.8160   23.2320   -5.0030 C.3   327  LYS327      0.1561
    122  C          8.3470   24.6590   -4.7380 C.2   327  LYS327      0.2260
    123  O          7.1520   24.9520   -4.8000 O.2   327  LYS327     -0.2867
    124  CB        10.0150   23.2400   -5.9520 C.3   327  LYS327      0.0271
    125  CG        10.5460   21.8580   -6.2950 C.3   327  LYS327      0.0035
    126  CD        11.5950   21.4060   -5.2920 C.3   327  LYS327      0.0206
    127  CE        11.8430   19.9090   -5.3900 C.3   327  LYS327      0.1093
    128  NZ        13.1870   19.5340   -4.8700 N.3   327  LYS327     -0.1314
    129  N         13.4980    8.5960   -3.5850 N.3   369  HIS369     -0.1241
    130  CA        14.7980    9.0710   -3.1090 C.3   369  HIS369      0.1621
    131  C         14.6000    9.5840   -1.6930 C.2   369  HIS369      0.2264
    132  O         13.4720    9.8190   -1.2670 O.2   369  HIS369     -0.2867
    133  CB        15.3000   10.2390   -3.9500 C.3   369  HIS369      0.0745
    134  CG        14.6320   11.5360   -3.6110 C.ar  369  HIS369      0.0817
    135  ND1       13.3090   11.7870   -3.9020 N.ar  369  HIS369     -0.2268
    136  CD2       15.0830   12.6270   -2.9470 C.ar  369  HIS369      0.1154
    137  CE1       12.9730   12.9760   -3.4350 C.ar  369  HIS369      0.1986
    138  NE2       14.0320   13.5070   -2.8500 N.ar  369  HIS369     -0.2212
    139  N         15.2490   12.5400    1.2130 N.3   371  HIS371     -0.1241
    140  CA        15.4750   13.9730    1.2060 C.3   371  HIS371      0.1621
    141  C         16.5520   14.1810    2.2580 C.2   371  HIS371      0.2264
    142  O         16.6220   13.4140    3.2180 O.2   371  HIS371     -0.2867
    143  CB        14.1920   14.7150    1.5480 C.3   371  HIS371      0.0745
    144  CG        13.3290   14.9900    0.3550 C.ar  371  HIS371      0.0817
    145  ND1       12.0860   14.4180    0.1790 N.ar  371  HIS371     -0.2268
    146  CD2       13.5340   15.7840   -0.7210 C.ar  371  HIS371      0.1154
    147  CE1       11.5620   14.8500   -0.9560 C.ar  371  HIS371      0.1986
    148  NE2       12.4210   15.6790   -1.5220 N.ar  371  HIS371     -0.2212
    149  N         16.3620   27.8180   -2.8600 N.3   407  ASP407     -0.1225
    150  CA        16.8750   26.6250   -3.4780 C.3   407  ASP407      0.1805
    151  C         16.1090   25.4640   -2.9300 C.2   407  ASP407      0.2598
    152  O         15.8860   25.3360   -1.7210 O.2   407  ASP407     -0.2718
    153  CB        18.3580   26.4390   -3.2380 C.3   407  ASP407      0.1424
    154  CG        19.0850   26.2300   -4.5130 C.2   407  ASP407      0.3668
    155  OD1       18.9850   25.1120   -5.0680 O.co2 407  ASP407     -0.2456
    156  OD2       19.7220   27.2020   -4.9720 O.co2 407  ASP407     -0.2456
    157  N         15.7560   24.6430   -3.7690 N.am  408  SER408     -0.1938
    158  CA        14.9820   23.4810   -3.4330 C.3   408  SER408      0.2055
    159  C         15.8240   22.3730   -2.8290 C.2   408  SER408      0.2643
    160  O         16.9980   22.2330   -3.1660 O.2   408  SER408     -0.2714
    161  CB        14.2750   22.9710   -4.6700 C.3   408  SER408      0.2130
    162  OG        13.3470   23.9460   -5.0820 O.3   408  SER408     -0.2179
    163  N         15.1520   21.5650   -2.0280 N.am  409  GLN409     -0.1963
    164  CA        15.8800   20.4750   -1.3910 C.3   409  GLN409      0.1733
    165  C         16.5110   19.5600   -2.4420 C.2   409  GLN409      0.2616
    166  O         15.8880   19.2130   -3.4500 O.2   409  GLN409     -0.2715
    167  CB        14.9530   19.6820   -0.4560 C.3   409  GLN409      0.0408
    168  CG        13.7370   19.0480   -1.1210 C.3   409  GLN409      0.0908
    169  CD        12.5290   18.9960   -0.1900 C.2   409  GLN409      0.2608
    170  OE1       12.6330   18.5790    0.9670 O.2   409  GLN409     -0.2717
    171  NE2       11.3730   19.4220   -0.6990 N.am  409  GLN409     -0.0878
    172  N         17.7580   19.1710   -2.1970 N.am  410  GLU410     -0.1963
    173  CA        18.5140   18.3740   -3.1560 C.3   410  GLU410      0.1733
    174  C         18.1620   16.8940   -3.0430 C.2   410  GLU410      0.2616
    175  O         17.5700   16.4610   -2.0540 O.2   410  GLU410     -0.2715
    176  CB        20.0170   18.5740   -2.9530 C.3   410  GLU410      0.0429
    177  CG        20.4880   20.0020   -3.1740 C.3   410  GLU410      0.1163
    178  CD        21.7870   20.0720   -3.9540 C.2   410  GLU410      0.3649
    179  OE1       22.7160   19.3010   -3.6350 O.co2 410  GLU410     -0.2457
    180  OE2       21.8790   20.8990   -4.8860 O.co2 410  GLU410     -0.2457
    181  N         18.5300   16.1230   -4.0610 N.am  411  HIS411     -0.1973
    182  CA        18.4540   14.6680   -3.9850 C.3   411  HIS411      0.1656
    183  C         19.6520   14.0930   -3.2380 C.2   411  HIS411      0.2291
    184  O         20.6560   14.7770   -3.0340 O.2   411  HIS411     -0.2864
    185  CB        18.3670   14.0620   -5.3870 C.3   411  HIS411      0.0771
    186  CG        16.9980   13.5780   -5.7510 C.ar  411  HIS411      0.0820
    187  ND1       16.7520   12.2910   -6.1770 N.ar  411  HIS411     -0.2267
    188  CD2       15.8000   14.2100   -5.7540 C.ar  411  HIS411      0.1154
    189  CE1       15.4630   12.1500   -6.4260 C.ar  411  HIS411      0.1986
    190  NE2       14.8620   13.3000   -6.1780 N.ar  411  HIS411     -0.2212
@<TRIPOS>BOND
     1   102   103    1
     2   103   106    1
     3   103   104    1
     4   105   104    2
     5   106   107    1
     6   104   111   am
     7   111   112    1
     8    63    61    1
     9   107   108    1
    10   113   114    2
    11   113   112    1
    12    62    61    1
    13   112   115    1
    14   108   110   ar
    15   108   109   ar
    16    61    58    1
    17    57    58    1
    18   115   116    1
    19    58    59    1
    20   116   117    1
    21    36    35    1
    22    59    64   am
    23    59    60    2
    24    64    65    1
    25    35    33   ar
    26    35    34   ar
    27   117   118    1
    28    33    31   ar
    29   119   118    1
    30    68    65    1
    31    68    69    1
    32    93    92    2
    33    92    91    1
    34    34    32   ar
    35    65    66    1
    36    31    30   ar
    37    67    66    2
    38    90    91    1
    39    66    70   am
    40    91    94    1
    41    32    30   ar
    42    30    29    1
    43    83    84    2
    44    83    82    1
    45    85    82    1
    46    85    86    1
    47    94    95    1
    48    70    71    1
    49    29    26    1
    50    82    81    1
    51    81    72   am
    52    87    86    1
    53    87    88    1
    54    25    26    1
    55    72    71    1
    56    72    73    2
    57    48    47    2
    58    71    74    1
    59    89    88    1
    60    47    46    1
    61    95    96   ar
    62    95    97   ar
    63    26    27    1
    64    96    98   ar
    65    28    27    2
    66    40    39    2
    67    27    37   am
    68    46    45    1
    69    74    75    1
    70    97    99   ar
    71    39    45   am
    72    39    38    1
    73    98   100   ar
    74    37    38    1
    75    75    76    1
    76    99   100   ar
    77    38    41    1
    78   100   101    1
    79    76    77    1
    80    41    42    1
    81    49    50    1
    82    52    51    2
    83    77    78    2
    84    51    50    1
    85    15    14   ar
    86    16    14   ar
    87    50    53    1
    88    42    43    2
    89    42    44   am
    90    14    13    1
    91    78    79    1
    92    78    80    1
    93    55    54   ar
    94    53    54    1
    95    13    10    1
    96    20    19    2
    97    19    18    1
    98    54    56   ar
    99    12    11    2
   100     9    10    1
   101    11    10    1
   102    11    17   am
   103    17    18    1
   104    18    21    1
   105    21    22    1
   106    24    22    1
   107    22    23    1
   108   189   190   ar
   109   189   187   ar
   110   125   124    1
   111   125   126    1
   112   190   188   ar
   113   187   186   ar
   114   124   121    1
   115   188   186   ar
   116   186   185    1
   117   120   121    1
   118   127   126    1
   119   127   128    1
   120   185   182    1
   121   162   161    1
   122   155   154   ar
   123   121   122    1
   124   156   154   ar
   125   180   178   ar
   126     8     6   ar
   127   123   122    2
   128   161   158    1
   129   154   153    1
   130     6     7   ar
   131     6     5    1
   132   181   182    1
   133   181   174   am
   134   182   183    1
   135   178   179   ar
   136   178   177    1
   137   133   134    1
   138   133   130    1
   139   135   134   ar
   140   135   137   ar
   141   157   158    1
   142   157   151   am
   143   134   136   ar
   144   129   130    1
   145   150   153    1
   146   150   151    1
   147   150   149    1
   148   166   165    2
   149   137   138   ar
   150   158   159    1
   151     5     2    1
   152   183   184    2
   153   177   176    1
   154   160   159    2
   155   173   174    1
   156   173   176    1
   157   173   172    1
   158   130   131    1
   159   174   175    2
   160   136   138   ar
   161   151   152    2
   162   159   163   am
   163     2     1    1
   164     2     3    1
   165   165   172   am
   166   165   164    1
   167   163   164    1
   168   131   132    2
   169     3     4    2
   170   148   147   ar
   171   148   146   ar
   172   164   167    1
   173   168   167    1
   174   168   169    1
   175   147   145   ar
   176   146   144   ar
   177   171   169   am
   178   169   170    2
   179   145   144   ar
   180   144   143    1
   181   140   139    1
   182   140   143    1
   183   140   141    1
   184   141   142    2
