@<TRIPOS>MOLECULE
tmp/3dpdA00.pdb
 177 166 0 0 0
SMALL
GASTEIGER

@<TRIPOS>ATOM
      1  N         18.2330   64.6240   12.8070 N.3   568  MET568     -0.1245
      2  CA        18.6570   65.6090   13.7860 C.3   568  MET568      0.1570
      3  C         19.4350   66.7720   13.2200 C.2   568  MET568      0.2261
      4  O         20.2060   66.6260   12.2800 O.2   568  MET568     -0.2867
      5  CB        19.4400   64.9290   14.9070 C.3   568  MET568      0.0387
      6  CG        18.5250   64.4510   16.0340 C.3   568  MET568      0.0595
      7  SD        19.1420   63.0320   16.8900 S.3   568  MET568     -0.1393
      8  CE        18.5620   61.7620   15.8050 C.3   568  MET568      0.0692
      9  N         22.0850   68.1670   13.5000 N.3   570  SER570     -0.1217
     10  CA        23.4860   68.0900   13.9060 C.3   570  SER570      0.1889
     11  C         24.3730   68.3040   12.6880 C.2   570  SER570      0.2288
     12  O         24.0290   67.8900   11.5830 O.2   570  SER570     -0.2866
     13  CB        23.7930   66.7200   14.5200 C.3   570  SER570      0.2089
     14  OG        25.1840   66.5680   14.7690 O.3   570  SER570     -0.2183
     15  N         26.3810   66.7700   11.6510 N.3   572  LYS572     -0.1245
     16  CA        26.7350   65.4350   11.1630 C.3   572  LYS572      0.1561
     17  C         25.5170   64.7520   10.5450 C.2   572  LYS572      0.2260
     18  O         25.6510   63.7970    9.7870 O.2   572  LYS572     -0.2867
     19  CB        27.2950   64.5810   12.3090 C.3   572  LYS572      0.0271
     20  CG        28.4930   65.2150   13.0170 C.3   572  LYS572      0.0035
     21  CD        29.2820   64.2080   13.8450 C.3   572  LYS572      0.0206
     22  CE        30.3370   64.8970   14.7130 C.3   572  LYS572      0.1093
     23  NZ        29.7450   65.7150   15.8280 N.3   572  LYS572     -0.1314
     24  N         22.4580   62.9290   11.9030 N.3   574  PRO574     -0.2116
     25  CA        22.1400   61.5660   12.3520 C.3   574  PRO574      0.1372
     26  C         20.7880   61.1590   11.7640 C.2   574  PRO574      0.2244
     27  O         20.3050   61.8040   10.8390 O.2   574  PRO574     -0.2868
     28  CB        22.0650   61.7110   13.8700 C.3   574  PRO574      0.0268
     29  CG        22.9380   62.8800   14.1670 C.3   574  PRO574      0.0207
     30  CD        22.6030   63.8360   13.0550 C.3   574  PRO574      0.0892
     31  N         16.9940   60.0840   13.3180 N.3   576  TRP576     -0.1241
     32  CA        16.0420   59.7630   14.3820 C.3   576  TRP576      0.1605
     33  C         14.9670   58.8350   13.8300 C.2   576  TRP576      0.2264
     34  O         14.1410   59.2460   13.0260 O.2   576  TRP576     -0.2867
     35  CB        15.4250   61.0540   14.9240 C.3   576  TRP576      0.0550
     36  CG        14.3840   60.8530   15.9320 C.ar  576  TRP576      0.0003
     37  CD1       13.1370   60.3390   15.7360 C.ar  576  TRP576      0.0946
     38  CD2       14.4580   61.2160   17.3100 C.ar  576  TRP576      0.0152
     39  NE1       12.4140   60.3700   16.9200 N.ar  576  TRP576     -0.2442
     40  CE2       13.2060   60.9120   17.8950 C.ar  576  TRP576      0.0810
     41  CE3       15.4600   61.7810   18.1050 C.ar  576  TRP576      0.0012
     42  CZ2       12.9340   61.1470   19.2350 C.ar  576  TRP576      0.0191
     43  CZ3       15.1950   62.0150   19.4320 C.ar  576  TRP576      0.0001
     44  CH2       13.9320   61.7030   19.9870 C.ar  576  TRP576      0.0015
     45  N         18.7860   55.6880   17.1960 N.3   595  ILE595     -0.1245
     46  CA        19.4870   56.6820   16.4040 C.3   595  ILE595      0.1561
     47  C         20.5870   56.0040   15.6100 C.2   595  ILE595      0.2260
     48  O         21.1030   54.9670   16.0260 O.2   595  ILE595     -0.2867
     49  CB        20.1330   57.7510   17.2890 C.3   595  ILE595      0.0252
     50  CG1       19.0580   58.6580   17.8840 C.3   595  ILE595      0.0019
     51  CG2       21.1660   58.5130   16.4990 C.3   595  ILE595      0.0019
     52  CD1       19.6380   59.7480   18.7520 C.3   595  ILE595      0.0001
     53  N         24.1270   57.1840   13.6010 N.3   597  LYS597     -0.1245
     54  CA        25.0170   58.3110   13.3350 C.3   597  LYS597      0.1561
     55  C         26.3360   57.9170   12.6920 C.2   597  LYS597      0.2260
     56  O         26.7470   56.7620   12.7420 O.2   597  LYS597     -0.2867
     57  CB        25.2970   59.0790   14.6360 C.3   597  LYS597      0.0271
     58  CG        26.1340   60.3410   14.4570 C.3   597  LYS597      0.0035
     59  CD        26.4800   60.9850   15.7840 C.3   597  LYS597      0.0206
     60  CE        27.3450   60.0700   16.6370 C.3   597  LYS597      0.1093
     61  NZ        27.8330   60.7290   17.8970 N.3   597  LYS597     -0.1314
     62  N         31.3260   60.1280   14.4920 N.3   600  ASP600     -0.1239
     63  CA        31.8680   59.8980   15.8290 C.3   600  ASP600      0.1674
     64  C         32.0360   58.4110   16.0680 C.2   600  ASP600      0.2266
     65  O         31.1260   57.6360   15.7840 O.2   600  ASP600     -0.2867
     66  CB        30.9280   60.4540   16.8860 C.3   600  ASP600      0.1410
     67  CG        30.7220   61.9360   16.7420 C.2   600  ASP600      0.3668
     68  OD1       31.7320   62.6460   16.5610 O.co2 600  ASP600     -0.2456
     69  OD2       29.5630   62.3810   16.8150 O.co2 600  ASP600     -0.2456
     70  N         31.8840   55.6680   22.9710 N.3   605  ASP605     -0.1239
     71  CA        30.6340   55.8200   23.7010 C.3   605  ASP605      0.1674
     72  C         30.2980   54.5210   24.3910 C.2   605  ASP605      0.2266
     73  O         29.7960   54.5290   25.5110 O.2   605  ASP605     -0.2867
     74  CB        29.4920   56.1990   22.7580 C.3   605  ASP605      0.1410
     75  CG        29.4150   57.6820   22.5270 C.2   605  ASP605      0.3668
     76  OD1       30.4640   58.2650   22.2090 O.co2 605  ASP605     -0.2456
     77  OD2       28.3150   58.2590   22.6710 O.co2 605  ASP605     -0.2456
     78  N         22.0430   54.6900   28.4590 N.3   631  TYR631     -0.1241
     79  CA        21.2860   54.2920   27.2900 C.3   631  TYR631      0.1605
     80  C         22.0590   53.3060   26.4200 C.2   631  TYR631      0.2264
     81  O         23.2860   53.2320   26.4720 O.2   631  TYR631     -0.2867
     82  CB        20.9070   55.5320   26.4810 C.3   631  TYR631      0.0534
     83  CG        22.0690   56.4430   26.1560 C.ar  631  TYR631     -0.0201
     84  CD1       22.9490   56.1450   25.1100 C.ar  631  TYR631     -0.0009
     85  CD2       22.2940   57.6100   26.8890 C.ar  631  TYR631     -0.0009
     86  CE1       24.0140   56.9880   24.8070 C.ar  631  TYR631      0.0417
     87  CE2       23.3590   58.4470   26.5860 C.ar  631  TYR631      0.0417
     88  CZ        24.2070   58.1410   25.5580 C.ar  631  TYR631      0.1957
     89  OH        25.2650   58.9650   25.2830 O.3   631  TYR631     -0.2866
     90  N         22.1030   54.0190   18.3820 N.3   643  ILE643     -0.1231
     91  CA        21.9670   54.4640   19.7640 C.3   643  ILE643      0.1692
     92  C         20.5110   54.4180   20.1890 C.2   643  ILE643      0.2592
     93  O         19.6070   54.5270   19.3670 O.2   643  ILE643     -0.2718
     94  CB        22.4540   55.9190   19.9200 C.3   643  ILE643      0.0266
     95  CG1       23.8380   56.0780   19.2900 C.3   643  ILE643      0.0019
     96  CG2       22.4930   56.3090   21.3690 C.3   643  ILE643      0.0020
     97  CD1       24.4060   57.4410   19.4840 C.3   643  ILE643      0.0001
     98  N         20.2820   54.2540   21.4800 N.am  644  GLU644     -0.1966
     99  CA        18.9230   54.2190   21.9880 C.3   644  GLU644      0.1733
    100  C         18.4440   55.6520   22.2220 C.2   644  GLU644      0.2616
    101  O         19.2470   56.5770   22.2970 O.2   644  GLU644     -0.2715
    102  CB        18.8900   53.4560   23.3000 C.3   644  GLU644      0.0429
    103  CG        17.5500   53.4850   23.9990 C.3   644  GLU644      0.1163
    104  CD        17.7030   53.1720   25.4550 C.2   644  GLU644      0.3649
    105  OE1       16.6850   53.0330   26.1710 O.co2 644  GLU644     -0.2457
    106  OE2       18.8720   53.0640   25.8790 O.co2 644  GLU644     -0.2457
    107  N         17.1380   55.8330   22.3360 N.am  645  ILE645     -0.1963
    108  CA        16.5770   57.1470   22.5780 C.3   645  ILE645      0.1727
    109  C         15.8090   57.1450   23.8840 C.2   645  ILE645      0.2616
    110  O         15.0020   56.2470   24.1410 O.2   645  ILE645     -0.2715
    111  CB        15.6050   57.5570   21.4560 C.3   645  ILE645      0.0290
    112  CG1       16.3860   58.0740   20.2500 C.3   645  ILE645      0.0022
    113  CG2       14.6470   58.6190   21.9590 C.3   645  ILE645      0.0023
    114  CD1       15.5480   58.2460   18.9900 C.3   645  ILE645      0.0001
    115  N         16.0610   58.1420   24.7190 N.am  646  VAL646     -0.1977
    116  CA        15.3430   58.2350   25.9740 C.3   646  VAL646      0.1596
    117  C         14.0550   59.0070   25.7150 C.2   646  VAL646      0.2287
    118  O         14.0760   60.0770   25.1060 O.2   646  VAL646     -0.2864
    119  CB        16.1650   58.9620   27.0310 C.3   646  VAL646      0.0276
    120  CG1       15.3240   59.1800   28.2770 C.3   646  VAL646      0.0022
    121  CG2       17.4050   58.1480   27.3520 C.3   646  VAL646      0.0022
    122  N         12.8710   63.2350   26.8040 N.3   649  ALA649     -0.1245
    123  CA        14.1440   63.8090   27.2440 C.3   649  ALA649      0.1562
    124  C         14.5580   64.9590   26.3370 C.2   649  ALA649      0.2260
    125  O         14.5080   64.8430   25.1090 O.2   649  ALA649     -0.2867
    126  CB        15.2320   62.7330   27.2480 C.3   649  ALA649      0.0290
    127  N         25.4420   71.3400   25.6650 N.3   714  ASP714     -0.1225
    128  CA        24.6640   70.5890   24.6870 C.3   714  ASP714      0.1805
    129  C         24.7480   69.0740   24.8800 C.2   714  ASP714      0.2597
    130  O         23.8230   68.3290   24.5380 O.2   714  ASP714     -0.2718
    131  CB        25.1480   70.9690   23.2860 C.3   714  ASP714      0.1424
    132  CG        24.2000   70.5240   22.2000 C.2   714  ASP714      0.3668
    133  OD1       23.0200   70.9410   22.2290 O.co2 714  ASP714     -0.2456
    134  OD2       24.6410   69.7650   21.3120 O.co2 714  ASP714     -0.2456
    135  N         25.8670   68.6340   25.4400 N.am  715  ASN715     -0.1974
    136  CA        26.1320   67.2240   25.6790 C.3   715  ASN715      0.1688
    137  C         25.4740   66.6740   26.9400 C.2   715  ASN715      0.2292
    138  O         25.8060   65.5820   27.4030 O.2   715  ASN715     -0.2864
    139  CB        27.6390   67.0170   25.7440 C.3   715  ASN715      0.1181
    140  CG        28.3090   67.3030   24.4260 C.2   715  ASN715      0.2629
    141  OD1       29.5200   67.5510   24.3630 O.2   715  ASN715     -0.2716
    142  ND2       27.5250   67.2580   23.3540 N.am  715  ASN715     -0.0877
    143  N         21.6800   66.0310   28.9780 N.3   717  MET717     -0.1245
    144  CA        20.2430   65.9880   28.8220 C.3   717  MET717      0.1570
    145  C         19.4710   65.8580   30.1440 C.2   717  MET717      0.2261
    146  O         20.0710   65.8340   31.2250 O.2   717  MET717     -0.2867
    147  CB        19.8690   64.8270   27.8930 C.3   717  MET717      0.0387
    148  CG        20.5060   64.8650   26.5030 C.3   717  MET717      0.0595
    149  SD        19.3140   64.2020   25.3020 S.3   717  MET717     -0.1393
    150  CE        19.3450   65.4350   24.0230 C.3   717  MET717      0.0692
    151  N         21.3050   63.2770   32.4830 N.3   725  PHE725     -0.1241
    152  CA        22.3420   62.3780   32.0140 C.3   725  PHE725      0.1605
    153  C         23.1330   63.0190   30.8990 C.2   725  PHE725      0.2264
    154  O         22.6620   63.9750   30.3110 O.2   725  PHE725     -0.2867
    155  CB        21.6700   61.1020   31.5280 C.3   725  PHE725      0.0534
    156  CG        20.7370   61.3040   30.3570 C.ar  725  PHE725     -0.0203
    157  CD1       21.2040   61.1920   29.0500 C.ar  725  PHE725     -0.0042
    158  CD2       19.3750   61.5190   30.5620 C.ar  725  PHE725     -0.0042
    159  CE1       20.3280   61.2720   27.9750 C.ar  725  PHE725     -0.0003
    160  CE2       18.4910   61.6040   29.4830 C.ar  725  PHE725     -0.0003
    161  CZ        18.9610   61.4770   28.1950 C.ar  725  PHE725     -0.0000
    162  N         25.6540   62.7200   27.1840 N.3   727  ILE727     -0.1231
    163  CA        25.5880   62.0370   25.9040 C.3   727  ILE727      0.1692
    164  C         26.7810   62.2990   25.0220 C.2   727  ILE727      0.2592
    165  O         27.7140   62.9880   25.4070 O.2   727  ILE727     -0.2718
    166  CB        24.3300   62.4140   25.1200 C.3   727  ILE727      0.0266
    167  CG1       24.1260   63.9330   25.1380 C.3   727  ILE727      0.0019
    168  CG2       23.1330   61.7150   25.7080 C.3   727  ILE727      0.0020
    169  CD1       24.8560   64.6890   24.0500 C.3   727  ILE727      0.0001
    170  N         26.7440   61.7200   23.8340 N.am  728  ASP728     -0.1974
    171  CA        27.8190   61.8700   22.8830 C.3   728  ASP728      0.1709
    172  C         29.1850   61.9760   23.5340 C.2   728  ASP728      0.2293
    173  O         29.7620   63.0520   23.6090 O.2   728  ASP728     -0.2864
    174  CB        27.5750   63.0880   21.9920 C.3   728  ASP728      0.1436
    175  CG        28.4520   63.0770   20.7550 C.2   728  ASP728      0.3671
    176  OD1       28.7930   61.9520   20.2840 O.co2 728  ASP728     -0.2456
    177  OD2       28.7860   64.1810   20.2520 O.co2 728  ASP728     -0.2456
@<TRIPOS>BOND
     1    18    17    2
     2    17    16    1
     3    27    26    2
     4    16    15    1
     5    16    19    1
     6    12    11    2
     7    26    25    1
     8    24    25    1
     9    24    30    1
    10     4     3    2
    11    19    20    1
    12    25    28    1
    13    11    10    1
    14    55    56    2
    15    55    54    1
    16     1     2    1
    17    20    21    1
    18    34    33    2
    19    30    29    1
    20     3     2    1
    21    31    32    1
    22    54    53    1
    23    54    57    1
    24     9    10    1
    25     2     5    1
    26    33    32    1
    27    21    22    1
    28    28    29    1
    29    10    13    1
    30    32    35    1
    31    58    57    1
    32    58    59    1
    33    62    63    1
    34    13    14    1
    35    22    23    1
    36     5     6    1
    37    35    36    1
    38    47    48    2
    39    47    46    1
    40    37    36   ar
    41    37    39   ar
    42    59    60    1
    43    65    64    2
    44     8     7    1
    45    63    64    1
    46    63    66    1
    47    36    38   ar
    48     6     7    1
    49    46    45    1
    50    46    49    1
    51    51    49    1
    52    68    67   ar
    53    60    61    1
    54    67    69   ar
    55    67    66    1
    56    39    40   ar
    57    49    50    1
    58    38    40   ar
    59    38    41   ar
    60    50    52    1
    61    40    42   ar
    62    41    43   ar
    63    90    91    1
    64   114   112    1
    65    42    44   ar
    66    95    97    1
    67    95    94    1
    68    93    92    2
    69    43    44   ar
    70    91    94    1
    71    91    92    1
    72    94    96    1
    73    92    98   am
    74   112   111    1
    75   177   175   ar
    76   176   175   ar
    77   175   174    1
    78   134   132   ar
    79   111   113    1
    80   111   108    1
    81    98    99    1
    82    99   100    1
    83    99   102    1
    84   174   171    1
    85   132   133   ar
    86   132   131    1
    87    76    75   ar
    88   100   101    2
    89   100   107   am
    90   107   108    1
    91    75    77   ar
    92    75    74    1
    93   108   109    1
    94    74    71    1
    95   171   172    1
    96   171   170    1
    97    70    71    1
    98   131   128    1
    99   102   103    1
   100   142   140   am
   101   172   173    2
   102    71    72    1
   103   170   164   am
   104   109   110    2
   105   109   115   am
   106   103   104    1
   107   150   149    1
   108   169   167    1
   109   141   140    2
   110    72    73    2
   111   140   139    1
   112   130   129    2
   113   128   129    1
   114   128   127    1
   115   115   116    1
   116    86    84   ar
   117    86    88   ar
   118   129   135   am
   119   164   165    2
   120   164   163    1
   121   118   117    2
   122   125   124    2
   123    84    83   ar
   124   166   167    1
   125   166   168    1
   126   166   163    1
   127    89    88    1
   128   149   148    1
   129   135   136    1
   130   104   106   ar
   131   104   105   ar
   132    88    87   ar
   133   136   139    1
   134   136   137    1
   135   117   116    1
   136   163   162    1
   137   116   119    1
   138    83    82    1
   139    83    85   ar
   140   124   123    1
   141    80    81    2
   142    80    79    1
   143    82    79    1
   144   148   147    1
   145    87    85   ar
   146   122   123    1
   147   137   138    2
   148   119   121    1
   149   119   120    1
   150   123   126    1
   151    79    78    1
   152   147   144    1
   153   159   161   ar
   154   159   157   ar
   155   161   160   ar
   156   144   143    1
   157   144   145    1
   158   157   156   ar
   159   160   158   ar
   160   145   146    2
   161   154   153    2
   162   156   158   ar
   163   156   155    1
   164   153   152    1
   165   155   152    1
   166   152   151    1
