@<TRIPOS>MOLECULE
tmp/3dpeA00.pdb
 211 210 0 0 0
SMALL
GASTEIGER

@<TRIPOS>ATOM
      1  N          4.8670   -8.2400   18.1390 N.3    40  LEU40      -0.1245
      2  CA         5.4570   -9.2240   17.2400 C.3    40  LEU40       0.1561
      3  C          6.8400   -9.6070   17.7300 C.2    40  LEU40       0.2260
      4  O          7.2260  -10.7690   17.6790 O.2    40  LEU40      -0.2867
      5  CB         5.5820   -8.6720   15.8220 C.3    40  LEU40       0.0270
      6  CG         4.3340   -8.5760   14.9500 C.3    40  LEU40       0.0019
      7  CD1        4.7530   -8.1330   13.5540 C.3    40  LEU40       0.0001
      8  CD2        3.6250   -9.9220   14.8840 C.3    40  LEU40       0.0001
      9  N          7.9960    6.0240   -2.0100 N.3    79  GLY79      -0.1210
     10  CA         9.4350    5.9870   -1.7890 C.3    79  GLY79       0.1956
     11  C          9.7690    5.5400   -0.3710 C.2    79  GLY79       0.2612
     12  O          9.3320    4.4690    0.0610 O.2    79  GLY79      -0.2717
     13  N         10.5450    6.3490    0.3480 N.am   80  ILE80      -0.1965
     14  CA        10.9280    6.0470    1.7340 C.3    80  ILE80       0.1727
     15  C          9.6910    6.1680    2.6130 C.2    80  ILE80       0.2616
     16  O          9.0660    7.2070    2.6460 O.2    80  ILE80      -0.2715
     17  CB        11.9810    7.0560    2.2660 C.3    80  ILE80       0.0290
     18  CG1       13.2520    7.0020    1.4150 C.3    80  ILE80       0.0022
     19  CG2       12.2860    6.7650    3.7340 C.3    80  ILE80       0.0023
     20  CD1       13.9470    5.6680    1.4380 C.3    80  ILE80       0.0001
     21  N          9.3490    5.1280    3.3590 N.am   81  LEU81      -0.1963
     22  CA         8.1580    5.1990    4.1900 C.3    81  LEU81       0.1728
     23  C          8.4440    5.6090    5.6210 C.2    81  LEU81       0.2616
     24  O          7.6260    6.2650    6.2670 O.2    81  LEU81      -0.2715
     25  CB         7.4430    3.8460    4.1920 C.3    81  LEU81       0.0311
     26  CG         7.1210    3.2400    2.8260 C.3    81  LEU81       0.0022
     27  CD1        6.4710    1.8780    3.0260 C.3    81  LEU81       0.0001
     28  CD2        6.2180    4.1670    2.0340 C.3    81  LEU81       0.0001
     29  N          9.6080    5.2150    6.1190 N.am   82  ALA82      -0.1977
     30  CA         9.9690    5.5170    7.4920 C.3    82  ALA82       0.1597
     31  C         11.3940    5.0660    7.7240 C.2    82  ALA82       0.2287
     32  O         12.0270    4.5270    6.8270 O.2    82  ALA82      -0.2864
     33  CB         9.0320    4.7680    8.4390 C.3    82  ALA82       0.0319
     34  N          0.9550   -0.8030   10.7180 N.3   113  PHE113     -0.1227
     35  CA         1.4040   -1.9290   11.5250 C.3   113  PHE113      0.1736
     36  C          2.6340   -2.6060   10.9280 C.2   113  PHE113      0.2595
     37  O          3.6330   -2.8050   11.6110 O.2   113  PHE113     -0.2718
     38  CB         0.2720   -2.9470   11.6630 C.3   113  PHE113      0.0547
     39  CG         0.7330   -4.3210   12.0460 C.ar  113  PHE113     -0.0202
     40  CD1        1.2200   -4.5780   13.3230 C.ar  113  PHE113     -0.0042
     41  CD2        0.6830   -5.3630   11.1220 C.ar  113  PHE113     -0.0042
     42  CE1        1.6520   -5.8590   13.6810 C.ar  113  PHE113     -0.0003
     43  CE2        1.1130   -6.6470   11.4670 C.ar  113  PHE113     -0.0003
     44  CZ         1.5970   -6.8940   12.7480 C.ar  113  PHE113     -0.0000
     45  N          2.5600   -2.9520    9.6490 N.am  114  LEU114     -0.1966
     46  CA         3.6740   -3.6190    8.9900 C.3   114  LEU114      0.1728
     47  C          4.9250   -2.7440    8.9470 C.2   114  LEU114      0.2616
     48  O          6.0210   -3.1980    9.2850 O.2   114  LEU114     -0.2715
     49  CB         3.2810   -4.0440    7.5740 C.3   114  LEU114      0.0311
     50  CG         4.3950   -4.7390    6.7860 C.3   114  LEU114      0.0022
     51  CD1        4.9160   -5.9390    7.5640 C.3   114  LEU114      0.0001
     52  CD2        3.8640   -5.1760    5.4250 C.3   114  LEU114      0.0001
     53  N          4.7630   -1.4850    8.5510 N.am  115  VAL115     -0.1977
     54  CA         5.8980   -0.5790    8.4910 C.3   115  VAL115      0.1596
     55  C          6.5380   -0.4350    9.8740 C.2   115  VAL115      0.2287
     56  O          7.7540   -0.5420   10.0110 O.2   115  VAL115     -0.2864
     57  CB         5.4870    0.8150    7.9570 C.3   115  VAL115      0.0276
     58  CG1        6.6610    1.7800    8.0600 C.3   115  VAL115      0.0022
     59  CG2        5.0550    0.7030    6.4940 C.3   115  VAL115      0.0022
     60  N          8.5130   -3.4890   11.0230 N.3   118  HIS118     -0.1226
     61  CA         9.8020   -3.5230   10.3470 C.3   118  HIS118      0.1752
     62  C         10.7550   -2.5300   11.0070 C.2   118  HIS118      0.2595
     63  O         11.8680   -2.8810   11.3830 O.2   118  HIS118     -0.2718
     64  CB         9.6240   -3.1610    8.8720 C.3   118  HIS118      0.0759
     65  CG        10.9020   -3.1130    8.0940 C.ar  118  HIS118      0.0818
     66  ND1       11.4280   -4.2150    7.4540 N.ar  118  HIS118     -0.2268
     67  CD2       11.7490   -2.0900    7.8370 C.ar  118  HIS118      0.1154
     68  CE1       12.5430   -3.8730    6.8360 C.ar  118  HIS118      0.1986
     69  NE2       12.7610   -2.5880    7.0520 N.ar  118  HIS118     -0.2212
     70  N         10.3080   -1.2860   11.1500 N.am  119  GLU119     -0.1979
     71  CA        11.1380   -0.2520   11.7520 C.3   119  GLU119      0.1602
     72  C         11.6050   -0.6080   13.1610 C.2   119  GLU119      0.2287
     73  O         12.7580   -0.3600   13.5180 O.2   119  GLU119     -0.2864
     74  CB        10.3870    1.0820   11.7760 C.3   119  GLU119      0.0415
     75  CG        10.1090    1.6770   10.3950 C.3   119  GLU119      0.1163
     76  CD        11.3280    1.6880    9.4810 C.2   119  GLU119      0.3649
     77  OE1       12.4490    1.9590    9.9630 O.co2 119  GLU119     -0.2457
     78  OE2       11.1580    1.4420    8.2670 O.co2 119  GLU119     -0.2457
     79  N         18.8230   -5.4680    7.7630 N.3   128  HIS128     -0.1241
     80  CA        17.9730   -6.0660    6.7460 C.3   128  HIS128      0.1621
     81  C         18.3680   -7.5180    6.5580 C.2   128  HIS128      0.2264
     82  O         19.4920   -7.9170    6.8700 O.2   128  HIS128     -0.2867
     83  CB        18.1100   -5.3090    5.4290 C.3   128  HIS128      0.0745
     84  CG        17.3110   -4.0450    5.3810 C.ar  128  HIS128      0.0817
     85  ND1       17.5470   -3.0500    4.4590 N.ar  128  HIS128     -0.2268
     86  CD2       16.2640   -3.6260    6.1290 C.ar  128  HIS128      0.1154
     87  CE1       16.6800   -2.0710    4.6400 C.ar  128  HIS128      0.1986
     88  NE2       15.8900   -2.3970    5.6450 N.ar  128  HIS128     -0.2212
     89  N         11.1020  -13.6160    2.6100 N.3   133  GLY133     -0.1210
     90  CA         9.9120  -13.7910    3.4170 C.3   133  GLY133      0.1956
     91  C         10.0350  -13.1340    4.7760 C.2   133  GLY133      0.2612
     92  O          9.0680  -13.0680    5.5300 O.2   133  GLY133     -0.2717
     93  N         11.2250  -12.6240    5.0800 N.am  134  ALA134     -0.1965
     94  CA        11.4820  -11.9900    6.3690 C.3   134  ALA134      0.1728
     95  C         10.8520  -10.6130    6.5450 C.2   134  ALA134      0.2616
     96  O         10.7210   -9.8430    5.5920 O.2   134  ALA134     -0.2715
     97  CB        12.9730  -11.8900    6.5870 C.3   134  ALA134      0.0334
     98  N         10.4580  -10.3030    7.7770 N.am  135  LEU135     -0.1977
     99  CA         9.8820   -8.9950    8.0660 C.3   135  LEU135      0.1596
    100  C         10.9360   -7.9260    7.7690 C.2   135  LEU135      0.2287
    101  O         10.6130   -6.8260    7.2980 O.2   135  LEU135     -0.2864
    102  CB         9.4520   -8.9100    9.5380 C.3   135  LEU135      0.0297
    103  CG         9.0440   -7.5170   10.0400 C.3   135  LEU135      0.0022
    104  CD1        7.9540   -6.9410    9.1410 C.3   135  LEU135      0.0001
    105  CD2        8.5690   -7.5940   11.4770 C.3   135  LEU135      0.0001
    106  N         13.1350   -7.8810    5.4300 N.3   137  TYR137     -0.1228
    107  CA        13.5640   -7.8650    4.0340 C.3   137  TYR137      0.1721
    108  C         13.5370   -6.3700    3.6850 C.2   137  TYR137      0.2437
    109  O         12.7450   -5.6160    4.2560 O.2   137  TYR137     -0.2733
    110  CB        12.5660   -8.6440    3.1750 C.3   137  TYR137      0.0547
    111  CG        12.9830   -8.8020    1.7350 C.ar  137  TYR137     -0.0200
    112  CD1       14.1060   -9.5570    1.3910 C.ar  137  TYR137     -0.0009
    113  CD2       12.2510   -8.2030    0.7140 C.ar  137  TYR137     -0.0009
    114  CE1       14.4890   -9.7100    0.0600 C.ar  137  TYR137      0.0417
    115  CE2       12.6210   -8.3490   -0.6140 C.ar  137  TYR137      0.0417
    116  CZ        13.7390   -9.1030   -0.9350 C.ar  137  TYR137      0.1957
    117  OH        14.0960   -9.2660   -2.2530 O.3   137  TYR137     -0.2866
    118  N         14.3880   -5.9180    2.7480 N.am  138  PRO138     -0.2718
    119  CA        14.4210   -4.4940    2.3830 C.3   138  PRO138      0.1535
    120  C         13.2130   -3.8640    1.6930 C.2   138  PRO138      0.2599
    121  O         13.0280   -2.6470    1.7720 O.2   138  PRO138     -0.2715
    122  CB        15.6670   -4.3900    1.4980 C.3   138  PRO138      0.0310
    123  CG        16.5130   -5.5450    1.9340 C.3   138  PRO138      0.0237
    124  CD        15.4990   -6.6390    2.1050 C.3   138  PRO138      0.0939
    125  N         12.4020   -4.6690    1.0120 N.am  139  ASN139     -0.1959
    126  CA        11.2570   -4.1360    0.2790 C.3   139  ASN139      0.1819
    127  C          9.8930   -4.4630    0.8600 C.2   139  ASN139      0.2621
    128  O          9.5630   -5.6220    1.0940 O.2   139  ASN139     -0.2715
    129  CB        11.3060   -4.6120   -1.1740 C.3   139  ASN139      0.1195
    130  CG        12.3560   -3.8880   -1.9920 C.2   139  ASN139      0.2630
    131  OD1       12.7670   -4.3630   -3.0500 O.2   139  ASN139     -0.2716
    132  ND2       12.7860   -2.7300   -1.5140 N.am  139  ASN139     -0.0877
    133  N          9.0980   -3.4190    1.0660 N.am  140  TYR140     -0.1960
    134  CA         7.7580   -3.5540    1.6170 C.3   140  TYR140      0.1771
    135  C          6.7840   -4.1540    0.6140 C.2   140  TYR140      0.2619
    136  O          6.7990   -3.8180   -0.5720 O.2   140  TYR140     -0.2715
    137  CB         7.2560   -2.1780    2.0790 C.3   140  TYR140      0.0574
    138  CG         5.7650   -2.0660    2.3290 C.ar  140  TYR140     -0.0198
    139  CD1        4.8630   -1.9760    1.2680 C.ar  140  TYR140     -0.0009
    140  CD2        5.2560   -2.0330    3.6270 C.ar  140  TYR140     -0.0009
    141  CE1        3.4940   -1.8550    1.4930 C.ar  140  TYR140      0.0417
    142  CE2        3.8900   -1.9130    3.8630 C.ar  140  TYR140      0.0417
    143  CZ         3.0160   -1.8240    2.7940 C.ar  140  TYR140      0.1957
    144  OH         1.6660   -1.7080    3.0280 O.3   140  TYR140     -0.2866
    145  N          5.9410   -5.0490    1.1170 N.am  141  ALA141     -0.1963
    146  CA         4.9120   -5.7090    0.3290 C.3   141  ALA141      0.1728
    147  C          3.9680   -6.3470    1.3390 C.2   141  ALA141      0.2616
    148  O          4.3650   -7.2370    2.0890 O.2   141  ALA141     -0.2715
    149  CB         5.5260   -6.7740   -0.5670 C.3   141  ALA141      0.0334
    150  N          2.7250   -5.8870    1.3750 N.am  142  PHE142     -0.1960
    151  CA         1.7730   -6.4360    2.3270 C.3   142  PHE142      0.1771
    152  C          1.2240   -7.7750    1.8560 C.2   142  PHE142      0.2619
    153  O          0.6680   -7.8700    0.7620 O.2   142  PHE142     -0.2715
    154  CB         0.6110   -5.4680    2.5430 C.3   142  PHE142      0.0574
    155  CG        -0.2190   -5.7910    3.7460 C.ar  142  PHE142     -0.0200
    156  CD1        0.2470   -5.4990    5.0220 C.ar  142  PHE142     -0.0042
    157  CD2       -1.4490   -6.4220    3.6100 C.ar  142  PHE142     -0.0042
    158  CE1       -0.5020   -5.8330    6.1510 C.ar  142  PHE142     -0.0003
    159  CE2       -2.2030   -6.7600    4.7290 C.ar  142  PHE142     -0.0003
    160  CZ        -1.7280   -6.4650    6.0020 C.ar  142  PHE142     -0.0000
    161  N          1.3890   -8.8000    2.6900 N.am  143  ARG143     -0.1977
    162  CA         0.8950  -10.1500    2.4110 C.3   143  ARG143      0.1597
    163  C         -0.1640  -10.4820    3.4620 C.2   143  ARG143      0.2287
    164  O          0.1630  -10.9220    4.5630 O.2   143  ARG143     -0.2864
    165  CB         2.0310  -11.1750    2.5070 C.3   143  ARG143      0.0334
    166  CG         3.0480  -11.1310    1.3750 C.3   143  ARG143      0.0492
    167  CD         4.2730  -11.9590    1.7340 C.3   143  ARG143      0.2205
    168  NE         5.3210  -11.1460    2.3490 N.pl3 143  ARG143     -0.0865
    169  CZ         6.1280  -11.5650    3.3180 C.cat 143  ARG143      0.5346
    170  NH1        6.0130  -12.7950    3.8010 N.pl3 143  ARG143      0.1354
    171  NH2        7.0560  -10.7570    3.8000 N.pl3 143  ARG143      0.1354
    172  N         -2.9340  -12.1890    5.7680 N.3   145  THR145     -0.1218
    173  CA        -3.0600  -13.5280    6.3330 C.3   145  THR145      0.1862
    174  C         -4.0390  -13.5370    7.5080 C.2   145  THR145      0.2287
    175  O         -4.5950  -12.5000    7.8730 O.2   145  THR145     -0.2866
    176  CB        -1.6930  -14.0630    6.8220 C.3   145  THR145      0.1770
    177  OG1       -1.8340  -15.4250    7.2420 O.3   145  THR145     -0.2211
    178  CG2       -1.1800  -13.2340    7.9910 C.3   145  THR145      0.0375
    179  N         -3.4580  -15.0940   10.9500 N.3   147  ASN147     -0.1225
    180  CA        -2.7430  -14.7390   12.1700 C.3   147  ASN147      0.1785
    181  C         -1.3570  -14.1990   11.8410 C.2   147  ASN147      0.2597
    182  O         -0.5840  -14.8450   11.1370 O.2   147  ASN147     -0.2718
    183  CB        -2.6100  -15.9540   13.0880 C.3   147  ASN147      0.1169
    184  CG        -1.8240  -15.6440   14.3460 C.2   147  ASN147      0.2627
    185  OD1       -2.1470  -14.7060   15.0760 O.2   147  ASN147     -0.2716
    186  ND2       -0.7840  -16.4310   14.6080 N.am  147  ASN147     -0.0877
    187  N         -1.0420  -13.0190   12.3620 N.am  148  TYR148     -0.1962
    188  CA         0.2490  -12.4000   12.0940 C.3   148  TYR148      0.1771
    189  C          1.3080  -12.6730   13.1650 C.2   148  TYR148      0.2620
    190  O          1.1100  -12.3920   14.3500 O.2   148  TYR148     -0.2715
    191  CB         0.0730  -10.8880   11.9090 C.3   148  TYR148      0.0574
    192  CG        -0.7460  -10.5200   10.6900 C.ar  148  TYR148     -0.0198
    193  CD1       -2.1020  -10.8400   10.6130 C.ar  148  TYR148     -0.0009
    194  CD2       -0.1560   -9.8780    9.6000 C.ar  148  TYR148     -0.0009
    195  CE1       -2.8520  -10.5320    9.4740 C.ar  148  TYR148      0.0417
    196  CE2       -0.8960   -9.5660    8.4590 C.ar  148  TYR148      0.0417
    197  CZ        -2.2410   -9.8980    8.4040 C.ar  148  TYR148      0.1957
    198  OH        -2.9660   -9.6130    7.2690 O.3   148  TYR148     -0.2866
    199  N          2.4350  -13.2330   12.7350 N.am  149  SER149     -0.1950
    200  CA         3.5340  -13.5220   13.6470 C.3   149  SER149      0.1924
    201  C          4.8500  -13.3880   12.8960 C.2   149  SER149      0.2314
    202  O          4.8890  -13.3900   11.6670 O.2   149  SER149     -0.2863
    203  CB         3.4050  -14.9290   14.2450 C.3   149  SER149      0.2116
    204  OG         3.6380  -15.9410   13.2860 O.3   149  SER149     -0.2180
    205  N          8.2350  -14.1300   11.0670 N.3   151  PRO151     -0.2116
    206  CA         8.7480  -15.2570   10.2840 C.3   151  PRO151      0.1372
    207  C          9.9170  -15.8300   11.0830 C.2   151  PRO151      0.2244
    208  O         10.5470  -15.1160   11.8640 O.2   151  PRO151     -0.2868
    209  CB         9.2160  -14.5950    8.9930 C.3   151  PRO151      0.0268
    210  CG         8.2180  -13.5000    8.8210 C.3   151  PRO151      0.0207
    211  CD         8.1010  -12.9290   10.2260 C.3   151  PRO151      0.0892
@<TRIPOS>BOND
     1   131   130    2
     2   117   116    1
     3     9    10    1
     4   130   132   am
     5   130   129    1
     6    10    11    1
     7   129   126    1
     8   116   115   ar
     9   116   114   ar
    10   115   113   ar
    11   136   135    2
    12   149   146    1
    13    11    12    2
    14    11    13   am
    15   114   112   ar
    16   126   127    1
    17   126   125    1
    18   146   145    1
    19   146   147    1
    20    13    14    1
    21   135   145   am
    22   135   134    1
    23   113   111   ar
    24   153   152    2
    25   127   133   am
    26   127   128    2
    27   125   120   am
    28   133   134    1
    29   139   141   ar
    30   139   138   ar
    31   147   150   am
    32   147   148    2
    33   150   151    1
    34   166   167    1
    35   166   165    1
    36   112   111   ar
    37    18    20    1
    38    18    17    1
    39   141   143   ar
    40   122   123    1
    41   122   119    1
    42   134   137    1
    43   120   121    2
    44   120   119    1
    45   167   168    1
    46    14    17    1
    47    14    15    1
    48   111   110    1
    49   152   151    1
    50   152   161   am
    51   123   124    1
    52    28    26    1
    53   137   138    1
    54   124   118    1
    55    17    19    1
    56   151   154    1
    57   138   140   ar
    58   168   169    2
    59   119   118    1
    60   162   165    1
    61   162   161    1
    62   162   163    1
    63   154   155    1
    64    89    90    1
    65    15    16    2
    66    15    21   am
    67   118   108   am
    68   143   144    1
    69   143   142   ar
    70    26    27    1
    71    26    25    1
    72   110   107    1
    73   169   171    1
    74   169   170    1
    75    21    22    1
    76    90    91    1
    77   163   164    2
    78   157   155   ar
    79   157   159   ar
    80   140   142   ar
    81   108   107    1
    82   108   109    2
    83   155   156   ar
    84   107   106    1
    85    22    25    1
    86    22    23    1
    87    85    87   ar
    88    85    84   ar
    89    87    88   ar
    90   159   160   ar
    91    91    93   am
    92    91    92    2
    93   156   158   ar
    94    93    94    1
    95    84    83    1
    96    84    86   ar
    97    52    50    1
    98    83    80    1
    99    96    95    2
   100    23    29   am
   101    23    24    2
   102    88    86   ar
   103   172   173    1
   104   160   158   ar
   105    29    30    1
   106   173   176    1
   107   173   174    1
   108    94    95    1
   109    94    97    1
   110    59    57    1
   111    95    98   am
   112    81    80    1
   113    81    82    2
   114    80    79    1
   115    50    51    1
   116    50    49    1
   117   176   177    1
   118   176   178    1
   119    32    31    2
   120    68    69   ar
   121    68    66   ar
   122    69    67   ar
   123   198   197    1
   124   101   100    2
   125    66    65   ar
   126    30    31    1
   127    30    33    1
   128   174   175    2
   129    49    46    1
   130   100    99    1
   131    98    99    1
   132    67    65   ar
   133    57    58    1
   134    57    54    1
   135    99   102    1
   136    65    64    1
   137    78    76   ar
   138   197   196   ar
   139   197   195   ar
   140   196   194   ar
   141    54    53    1
   142    54    55    1
   143    53    47   am
   144   210   209    1
   145   210   211    1
   146    64    61    1
   147    47    46    1
   148    47    48    2
   149    46    45    1
   150   209   206    1
   151   104   103    1
   152   195   193   ar
   153    76    77   ar
   154    76    75    1
   155   102   103    1
   156   194   192   ar
   157    45    36   am
   158    55    56    2
   159   103   105    1
   160   211   205    1
   161   206   205    1
   162   206   207    1
   163    61    62    1
   164    61    60    1
   165    75    74    1
   166   193   192   ar
   167   192   191    1
   168    34    35    1
   169    36    35    1
   170    36    37    2
   171   179   180    1
   172    62    70   am
   173    62    63    2
   174   207   208    2
   175    41    43   ar
   176    41    39   ar
   177   182   181    2
   178    70    71    1
   179    43    44   ar
   180    35    38    1
   181    38    39    1
   182   202   201    2
   183    71    74    1
   184    71    72    1
   185   181   180    1
   186   181   187   am
   187   191   188    1
   188    39    40   ar
   189   188   187    1
   190   188   189    1
   191   180   183    1
   192   199   189   am
   193   199   200    1
   194    44    42   ar
   195   201   200    1
   196   183   184    1
   197    72    73    2
   198   189   190    2
   199   204   203    1
   200    40    42   ar
   201     7     6    1
   202   200   203    1
   203   184   186   am
   204   184   185    2
   205     8     6    1
   206     6     5    1
   207     5     2    1
   208     2     3    1
   209     2     1    1
   210     4     3    2
