@<TRIPOS>MOLECULE
tmp/3dpjA00.pdb
 89 84 0 0 0
SMALL
GASTEIGER

@<TRIPOS>ATOM
      1  N         15.8870   -8.4670   -9.4610 N.3    17  ASP17      -0.1225
      2  CA        15.6390   -7.4750   -8.4230 C.3    17  ASP17       0.1805
      3  C         14.9390   -6.2330   -8.9950 C.2    17  ASP17       0.2597
      4  O         13.8580   -5.8460   -8.5470 O.2    17  ASP17      -0.2718
      5  CB        16.9620   -7.0820   -7.7520 C.3    17  ASP17       0.1424
      6  CG        16.7670   -6.2000   -6.5190 C.2    17  ASP17       0.3668
      7  OD1       15.7520   -6.3620   -5.8120 O.co2  17  ASP17      -0.2456
      8  OD2       17.6420   -5.3490   -6.2450 O.co2  17  ASP17      -0.2456
      9  N         15.5670   -5.6150   -9.9910 N.am   18  GLU18      -0.1979
     10  CA        15.0630   -4.3750  -10.5770 C.3    18  GLU18       0.1602
     11  C         13.7440   -4.5790  -11.3280 C.2    18  GLU18       0.2287
     12  O         12.8120   -3.7880  -11.1570 O.2    18  GLU18      -0.2864
     13  CB        16.1240   -3.7480  -11.4950 C.3    18  GLU18       0.0415
     14  CG        15.9250   -2.2630  -11.7860 C.3    18  GLU18       0.1163
     15  CD        16.3840   -1.3720  -10.6440 C.2    18  GLU18       0.3649
     16  OE1       17.3260   -1.7700   -9.9220 O.co2  18  GLU18      -0.2457
     17  OE2       15.8030   -0.2730  -10.4760 O.co2  18  GLU18      -0.2457
     18  N         10.7210   -5.0960   -9.2160 N.3    21  TYR21      -0.1241
     19  CA        10.2790   -3.8200   -8.6470 C.3    21  TYR21       0.1605
     20  C          9.4970   -3.0110   -9.6620 C.2    21  TYR21       0.2264
     21  O          8.3880   -2.5680   -9.3740 O.2    21  TYR21      -0.2867
     22  CB        11.4620   -3.0010   -8.1010 C.3    21  TYR21       0.0534
     23  CG        11.1150   -1.5910   -7.6280 C.ar   21  TYR21      -0.0201
     24  CD1       10.1360   -1.3710   -6.6560 C.ar   21  TYR21      -0.0009
     25  CD2       11.7910   -0.4750   -8.1340 C.ar   21  TYR21      -0.0009
     26  CE1        9.8190   -0.0660   -6.2130 C.ar   21  TYR21       0.0417
     27  CE2       11.4850    0.8200   -7.6940 C.ar   21  TYR21       0.0417
     28  CZ        10.5020    1.0190   -6.7290 C.ar   21  TYR21       0.1957
     29  OH        10.2030    2.3000   -6.2900 O.3    21  TYR21      -0.2866
     30  N         17.8660   -8.2600   -1.3930 N.3    62  ARG62      -0.1245
     31  CA        17.2220   -7.0540   -0.8520 C.3    62  ARG62       0.1563
     32  C         17.4500   -6.9360    0.6510 C.2    62  ARG62       0.2260
     33  O         17.8170   -5.8750    1.1460 O.2    62  ARG62      -0.2867
     34  CB        15.7060   -7.0500   -1.1300 C.3    62  ARG62       0.0307
     35  CG        15.3390   -7.4050   -2.5350 C.3    62  ARG62       0.0489
     36  CD        13.9210   -6.9650   -2.8390 C.3    62  ARG62       0.2205
     37  NE        13.7790   -6.5800   -4.2420 N.pl3  62  ARG62      -0.0865
     38  CZ        12.6680   -6.0970   -4.7940 C.cat  62  ARG62       0.5346
     39  NH1       11.5660   -5.9360   -4.0760 N.pl3  62  ARG62       0.1354
     40  NH2       12.6610   -5.7790   -6.0790 N.pl3  62  ARG62       0.1354
     41  N         21.1260   -5.8080    0.8530 N.3    65  ARG65      -0.1231
     42  CA        21.2370   -4.3960    0.4960 C.3    65  ARG65       0.1694
     43  C         20.6680   -3.5170    1.5900 C.2    65  ARG65       0.2592
     44  O         21.2280   -2.4750    1.9090 O.2    65  ARG65      -0.2718
     45  CB        20.4590   -4.0970   -0.7850 C.3    65  ARG65       0.0321
     46  CG        20.9560   -4.7870   -2.0310 C.3    65  ARG65       0.0489
     47  CD        21.1460   -3.7720   -3.1500 C.3    65  ARG65       0.2205
     48  NE        22.3460   -2.9650   -2.9180 N.pl3  65  ARG65      -0.0865
     49  CZ        22.7890   -1.9990   -3.7200 C.cat  65  ARG65       0.5346
     50  NH1       22.1340   -1.6920   -4.8290 N.pl3  65  ARG65       0.1354
     51  NH2       23.8950   -1.3360   -3.4070 N.pl3  65  ARG65       0.1354
     52  N         19.5450   -3.9570    2.1500 N.am   66  THR66      -0.1953
     53  CA        18.7550   -3.1790    3.1020 C.3    66  THR66       0.1897
     54  C         19.3810   -3.0100    4.4810 C.2    66  THR66       0.2313
     55  O         19.5170   -1.8920    4.9730 O.2    66  THR66      -0.2863
     56  CB        17.3500   -3.7920    3.2800 C.3    66  THR66       0.1794
     57  OG1       16.6420   -3.7190    2.0380 O.3    66  THR66      -0.2208
     58  CG2       16.5650   -3.0450    4.3540 C.3    66  THR66       0.0378
     59  N         13.8470    9.1140   -3.1060 N.3    91  ASN91      -0.1240
     60  CA        13.3680    8.1540   -4.0880 C.3    91  ASN91       0.1653
     61  C         11.9700    8.4990   -4.5860 C.2    91  ASN91       0.2266
     62  O         11.2800    7.6390   -5.1280 O.2    91  ASN91      -0.2867
     63  CB        13.3540    6.7380   -3.4980 C.3    91  ASN91       0.1155
     64  CG        14.7240    6.2780   -3.0050 C.2    91  ASN91       0.2627
     65  OD1       15.7620    6.6780   -3.5320 O.2    91  ASN91      -0.2716
     66  ND2       14.7250    5.4090   -1.9980 N.am   91  ASN91      -0.0877
     67  N         10.8150    7.3830   -8.2000 N.3    94  LYS94      -0.1245
     68  CA        10.6220    5.9430   -8.3230 C.3    94  LYS94       0.1561
     69  C          9.4320    5.5100   -7.4760 C.2    94  LYS94       0.2260
     70  O          8.5320    4.8190   -7.9620 O.2    94  LYS94      -0.2867
     71  CB        11.8790    5.1750   -7.9280 C.3    94  LYS94       0.0271
     72  CG        12.8680    4.9940   -9.0710 C.3    94  LYS94       0.0035
     73  CD        14.1360    4.3090   -8.5840 C.3    94  LYS94       0.0206
     74  CE        15.0740    3.9310   -9.7260 C.3    94  LYS94       0.1093
     75  NZ        16.2880    3.2130   -9.2210 N.3    94  LYS94      -0.1314
     76  N          9.3390    0.0390   -2.7590 N.2   101  PRO101     -0.2571
     77  CA         9.8590   -1.2800   -3.1610 C.3   101  PRO101      0.2026
     78  C          9.4700   -2.3740   -2.1700 C.2   101  PRO101      0.2683
     79  O          9.3700   -3.5550   -2.5270 O.2   101  PRO101     -0.2709
     80  CB        11.3910   -1.1100   -3.1180 C.2   101  PRO101      0.0085
     81  CG        11.6630    0.2780   -2.6950 C.2   101  PRO101      0.0180
     82  CD        10.3900    1.0270   -2.4670 C.2   101  PRO101      0.0938
     83  N          9.2880   -1.9810   -0.9140 N.am  102  VAL102     -0.1973
     84  CA         9.0220   -2.9470    0.1440 C.3   102  VAL102      0.1596
     85  C          7.5400   -3.3080    0.2580 C.2   102  VAL102      0.2287
     86  O          7.1840   -4.4800    0.2530 O.2   102  VAL102     -0.2864
     87  CB         9.6010   -2.4830    1.4990 C.3   102  VAL102      0.0276
     88  CG1        9.1390   -3.4070    2.6190 C.3   102  VAL102      0.0022
     89  CG2       11.1260   -2.4520    1.4330 C.3   102  VAL102      0.0022
@<TRIPOS>BOND
     1    14    13    1
     2    14    15    1
     3    13    10    1
     4    11    12    2
     5    11    10    1
     6    15    17   ar
     7    15    16   ar
     8    10     9    1
     9     9     3   am
    10    74    75    1
    11    74    73    1
    12    20    21    2
    13    20    19    1
    14     1     2    1
    15    18    19    1
    16    72    73    1
    17    72    71    1
    18     3     4    2
    19     3     2    1
    20    19    22    1
    21     2     5    1
    22    68    67    1
    23    68    71    1
    24    68    69    1
    25    25    27   ar
    26    25    23   ar
    27    22    23    1
    28    70    69    2
    29     5     6    1
    30    27    28   ar
    31    23    24   ar
    32    28    29    1
    33    28    26   ar
    34    24    26   ar
    35     6     8   ar
    36     6     7   ar
    37    40    38    1
    38    62    61    2
    39    50    49    1
    40    38    37    2
    41    38    39    1
    42    61    60    1
    43    37    36    1
    44    60    63    1
    45    60    59    1
    46    49    51    1
    47    49    48    2
    48    65    64    2
    49    63    64    1
    50    77    80    1
    51    77    76    1
    52    77    78    1
    53    47    48    1
    54    47    46    1
    55    80    81    2
    56    64    66   am
    57    36    35    1
    58    76    82    2
    59    81    82    1
    60    35    34    1
    61    79    78    2
    62    78    83   am
    63    46    45    1
    64    30    31    1
    65    34    31    1
    66    83    84    1
    67    31    32    1
    68    45    42    1
    69    84    85    1
    70    84    87    1
    71    86    85    2
    72    42    41    1
    73    42    43    1
    74    32    33    2
    75    89    87    1
    76    87    88    1
    77    43    44    2
    78    43    52   am
    79    57    56    1
    80    52    53    1
    81    53    56    1
    82    53    54    1
    83    56    58    1
    84    54    55    2
