@<TRIPOS>MOLECULE
tmp/3dpkA00.pdb
 214 203 0 0 0
SMALL
GASTEIGER

@<TRIPOS>ATOM
      1  N         -3.0850   24.9330   12.8740 N.3    31  LYS31      -0.1231
      2  CA        -3.4950   25.7730   11.7550 C.3    31  LYS31       0.1693
      3  C         -2.6850   25.4750   10.4920 C.2    31  LYS31       0.2593
      4  O         -1.5860   24.9160   10.5340 O.2    31  LYS31      -0.2718
      5  CB        -3.3980   27.2680   12.1250 C.3    31  LYS31       0.0285
      6  CG        -1.9740   27.7860   12.4080 C.3    31  LYS31       0.0035
      7  CD        -1.9620   29.3080   12.6650 C.3    31  LYS31       0.0206
      8  CE        -0.6070   29.9660   12.4080 C.3    31  LYS31       0.1093
      9  NZ         0.3800   29.7530   13.5030 N.3    31  LYS31      -0.1314
     10  N         -3.2630   25.8110    9.3540 N.am   32  THR32      -0.1939
     11  CA        -2.6120   25.6420    8.0730 C.3    32  THR32       0.2028
     12  C         -1.7020   26.8450    7.7890 C.2    32  THR32       0.2642
     13  O         -2.1310   27.9780    7.9010 O.2    32  THR32      -0.2714
     14  CB        -3.6750   25.5190    6.9790 C.3    32  THR32       0.1808
     15  OG1       -4.3510   24.2570    7.1130 O.3    32  THR32      -0.2208
     16  CG2       -3.0370   25.6360    5.5690 C.3    32  THR32       0.0379
     17  N         -0.4450   26.5920    7.4300 N.am   33  LEU33      -0.1963
     18  CA         0.5390   27.6450    7.1600 C.3    33  LEU33       0.1728
     19  C          0.5490   28.0310    5.6970 C.2    33  LEU33       0.2616
     20  O          0.8500   29.1660    5.3550 O.2    33  LEU33      -0.2715
     21  CB         1.9410   27.1840    7.5610 C.3    33  LEU33       0.0311
     22  CG         2.0400   26.5400    8.9500 C.3    33  LEU33       0.0022
     23  CD1        3.4300   25.9510    9.1960 C.3    33  LEU33       0.0001
     24  CD2        1.6280   27.5180   10.0690 C.3    33  LEU33       0.0001
     25  N          0.2460   27.0860    4.8250 N.am   34  GLY34      -0.1955
     26  CA         0.2110   27.3790    3.4110 C.3    34  GLY34       0.1869
     27  C         -0.0420   26.1120    2.6110 C.2    34  GLY34       0.2309
     28  O          0.0570   24.9980    3.1240 O.2    34  GLY34      -0.2863
     29  N          0.9820   22.4280    4.2590 N.3    41  VAL41      -0.1245
     30  CA         1.7330   22.2900    5.4900 C.3    41  VAL41       0.1561
     31  C          0.9050   22.8680    6.6190 C.2    41  VAL41       0.2260
     32  O          0.3200   23.9510    6.4730 O.2    41  VAL41      -0.2867
     33  CB         3.0810   23.0290    5.4170 C.3    41  VAL41       0.0252
     34  CG1        3.7730   23.0410    6.7840 C.3    41  VAL41       0.0019
     35  CG2        3.9660   22.4070    4.3540 C.3    41  VAL41       0.0019
     36  N          6.2960   21.4190   11.9080 N.3    56  ALA56      -0.1245
     37  CA         5.5320   21.6430   10.6950 C.3    56  ALA56       0.1562
     38  C          5.3420   20.2740   10.0430 C.2    56  ALA56       0.2260
     39  O          6.2530   19.4550   10.0440 O.2    56  ALA56      -0.2867
     40  CB         6.2530   22.6090    9.7640 C.3    56  ALA56       0.0290
     41  N          3.9980   18.3630    6.5690 N.3    58  LYS58      -0.1245
     42  CA         3.6300   18.4840    5.1860 C.3    58  LYS58       0.1561
     43  C          2.8690   17.2220    4.7540 C.2    58  LYS58       0.2260
     44  O          3.2520   16.1040    5.1030 O.2    58  LYS58      -0.2867
     45  CB         4.8630   18.6890    4.3310 C.3    58  LYS58       0.0271
     46  CG         4.5420   18.8820    2.8830 C.3    58  LYS58       0.0035
     47  CD         5.7740   19.0710    2.0720 C.3    58  LYS58       0.0206
     48  CE         6.3270   20.4160    2.3360 C.3    58  LYS58       0.1093
     49  NZ         7.6930   20.4900    1.8320 N.3    58  LYS58      -0.1314
     50  N         10.9230   14.0960   -1.9950 N.3    75  GLU75      -0.1245
     51  CA        11.4090   15.1740   -1.1920 C.3    75  GLU75       0.1567
     52  C         11.8750   14.6580    0.1770 C.2    75  GLU75       0.2260
     53  O         12.8600   15.1180    0.7100 O.2    75  GLU75      -0.2867
     54  CB        10.3040   16.2200   -1.0630 C.3    75  GLU75       0.0388
     55  CG        10.6780   17.3700   -0.2270 C.3    75  GLU75       0.1160
     56  CD         9.5360   18.3290   -0.0510 C.2    75  GLU75       0.3649
     57  OE1        8.8320   18.6050   -1.0450 O.co2  75  GLU75      -0.2457
     58  OE2        9.3570   18.7880    1.0910 O.co2  75  GLU75      -0.2457
     59  N         15.7280   15.0630    1.7500 N.3    79  MET79      -0.1245
     60  CA        15.9070   15.5720    3.1010 C.3    79  MET79       0.1570
     61  C         16.5980   14.5710    4.0270 C.2    79  MET79       0.2261
     62  O         17.4590   14.9480    4.8120 O.2    79  MET79      -0.2867
     63  CB        14.5490   15.9360    3.7300 C.3    79  MET79       0.0387
     64  CG        13.8320   17.1160    3.1090 C.3    79  MET79       0.0595
     65  SD        12.5280   17.7330    4.2140 S.3    79  MET79      -0.1393
     66  CE        13.4800   18.8960    5.2220 C.3    79  MET79       0.0692
     67  N         15.7010   24.0440    6.9830 N.3    89  VAL89      -0.1245
     68  CA        14.5690   23.5570    7.7380 C.3    89  VAL89       0.1561
     69  C         14.8130   22.0580    7.8270 C.2    89  VAL89       0.2260
     70  O         14.7080   21.3730    6.8270 O.2    89  VAL89      -0.2867
     71  CB        13.2710   23.8070    6.9930 C.3    89  VAL89       0.0252
     72  CG1       12.1090   23.2510    7.7700 C.3    89  VAL89       0.0019
     73  CG2       13.1220   25.3180    6.7490 C.3    89  VAL89       0.0019
     74  N          5.1930   14.4230    6.3550 N.3   103  VAL103     -0.1245
     75  CA         6.6210   14.7440    6.5460 C.3   103  VAL103      0.1561
     76  C          6.7280   15.7990    7.6080 C.2   103  VAL103      0.2260
     77  O          6.1020   16.8520    7.5230 O.2   103  VAL103     -0.2867
     78  CB         7.2720   15.2240    5.2530 C.3   103  VAL103      0.0252
     79  CG1        8.7650   15.5070    5.4790 C.3   103  VAL103      0.0019
     80  CG2        7.0870   14.1820    4.1540 C.3   103  VAL103      0.0019
     81  N          8.8800   18.4370    9.8740 N.3   105  THR105     -0.1203
     82  CA        10.0660   19.2960    9.8310 C.3   105  THR105      0.1994
     83  C         10.0240   20.3210   10.9370 C.2   105  THR105      0.2618
     84  O          9.0110   20.4730   11.6160 O.2   105  THR105     -0.2717
     85  CB        10.2070   20.0420    8.4680 C.3   105  THR105      0.1784
     86  OG1        9.0420   20.8590    8.2310 O.3   105  THR105     -0.2211
     87  CG2       10.3840   19.0530    7.3110 C.3   105  THR105      0.0376
     88  N         11.1420   21.0300   11.1280 N.am  106  GLU106     -0.1965
     89  CA        11.1930   22.0880   12.1220 C.3   106  GLU106      0.1733
     90  C         10.1670   23.1890   11.7950 C.2   106  GLU106      0.2616
     91  O         10.0120   23.5650   10.6340 O.2   106  GLU106     -0.2715
     92  CB        12.5890   22.6930   12.1470 C.3   106  GLU106      0.0429
     93  CG        13.6820   21.7090   12.4790 C.3   106  GLU106      0.1163
     94  CD        15.0430   22.3570   12.4830 C.2   106  GLU106      0.3649
     95  OE1       15.3530   23.1160   11.5390 O.co2 106  GLU106     -0.2457
     96  OE2       15.8010   22.0900   13.4310 O.co2 106  GLU106     -0.2457
     97  N          9.4890   23.6990   12.8220 N.am  107  TYR107     -0.1960
     98  CA         8.5710   24.8180   12.6860 C.3   107  TYR107      0.1771
     99  C          9.3380   26.1340   12.9190 C.2   107  TYR107      0.2620
    100  O         10.0750   26.2560   13.9040 O.2   107  TYR107     -0.2715
    101  CB         7.4240   24.6820   13.6870 C.3   107  TYR107      0.0574
    102  CG         6.4790   25.8590   13.6690 C.ar  107  TYR107     -0.0198
    103  CD1        5.7320   26.1480   12.5450 C.ar  107  TYR107     -0.0009
    104  CD2        6.3480   26.6870   14.7690 C.ar  107  TYR107     -0.0009
    105  CE1        4.8820   27.2070   12.5240 C.ar  107  TYR107      0.0417
    106  CE2        5.5070   27.7330   14.7560 C.ar  107  TYR107      0.0417
    107  CZ         4.7690   27.9970   13.6400 C.ar  107  TYR107      0.1957
    108  OH         3.9310   29.0720   13.6560 O.3   107  TYR107     -0.2866
    109  N          9.1930   27.0810   11.9910 N.am  108  CYS108     -0.1954
    110  CA         9.8300   28.3850   12.0810 C.3   108  CYS108      0.1843
    111  C          8.7880   29.4000   12.4830 C.2   108  CYS108      0.2626
    112  O          7.9240   29.7790   11.7030 O.2   108  CYS108     -0.2714
    113  CB        10.4700   28.7650   10.7380 C.3   108  CYS108      0.0997
    114  SG        11.6940   27.5770   10.2190 S.3   108  CYS108     -0.0797
    115  N          8.8460   29.8030   13.7340 N.am  109  CYS109     -0.1954
    116  CA         7.7420   30.5620   14.3210 C.3   109  CYS109      0.1843
    117  C          7.5120   31.9990   13.7930 C.2   109  CYS109      0.2625
    118  O          6.4520   32.5500   13.9960 O.2   109  CYS109     -0.2714
    119  CB         7.8880   30.5970   15.8430 C.3   109  CYS109      0.0997
    120  SG         9.3400   31.4320   16.4420 S.3   109  CYS109     -0.0797
    121  N          8.4860   32.6070   13.1340 N.am  110  TYR110     -0.1960
    122  CA         8.3150   33.9940   12.6850 C.3   110  TYR110      0.1771
    123  C          7.8500   34.1180   11.2560 C.2   110  TYR110      0.2620
    124  O          7.5700   35.2150   10.7690 O.2   110  TYR110     -0.2715
    125  CB         9.5850   34.8020   12.9260 C.3   110  TYR110      0.0574
    126  CG         9.8990   34.9140   14.3890 C.ar  110  TYR110     -0.0198
    127  CD1       11.1030   34.4850   14.8860 C.ar  110  TYR110     -0.0009
    128  CD2        8.9590   35.3970   15.2900 C.ar  110  TYR110     -0.0009
    129  CE1       11.4030   34.5780   16.2390 C.ar  110  TYR110      0.0417
    130  CE2        9.2430   35.4910   16.6410 C.ar  110  TYR110      0.0417
    131  CZ        10.4740   35.0770   17.1110 C.ar  110  TYR110      0.1957
    132  OH        10.7830   35.1380   18.4530 O.3   110  TYR110     -0.2866
    133  N          7.6760   32.9770   10.6070 N.am  111  GLY111     -0.1940
    134  CA         7.1590   32.9550    9.2520 C.3   111  GLY111      0.2014
    135  C          8.2000   33.3250    8.2210 C.2   111  GLY111      0.2638
    136  O          9.3950   33.1750    8.4320 O.2   111  GLY111     -0.2714
    137  N          7.7610   33.8630    7.0930 N.am  112  ASP112     -0.1971
    138  CA         8.6940   34.1320    6.0130 C.3   112  ASP112      0.1709
    139  C          9.3480   35.5340    6.0770 C.2   112  ASP112      0.2293
    140  O          8.7980   36.5240    6.6130 O.2   112  ASP112     -0.2864
    141  CB         8.0250   33.9640    4.6530 C.3   112  ASP112      0.1436
    142  CG         6.9150   34.9430    4.4630 C.2   112  ASP112      0.3671
    143  OD1        5.8800   34.7530    5.1550 O.co2 112  ASP112     -0.2456
    144  OD2        7.1060   35.9370    3.6780 O.co2 112  ASP112     -0.2456
    145  N          7.5260   38.8230    4.2620 N.3   115  ASN115     -0.1240
    146  CA         6.5560   39.4860    5.1360 C.3   115  ASN115      0.1653
    147  C          7.1660   40.2150    6.3510 C.2   115  ASN115      0.2266
    148  O          6.6880   41.2800    6.7520 O.2   115  ASN115     -0.2867
    149  CB         5.5130   38.4710    5.5990 C.3   115  ASN115      0.1155
    150  CG         4.4280   38.2240    4.5470 C.2   115  ASN115      0.2627
    151  OD1        3.7980   39.1470    4.0390 O.2   115  ASN115     -0.2716
    152  ND2        4.2030   36.9660    4.2360 N.am  115  ASN115     -0.0877
    153  N         10.5150   35.1440   -0.0930 N.3   153  ARG153     -0.1245
    154  CA         9.3260   34.3800    0.2540 C.3   153  ARG153      0.1563
    155  C          9.6830   32.9370    0.6700 C.2   153  ARG153      0.2260
    156  O          8.9340   32.3010    1.3680 O.2   153  ARG153     -0.2867
    157  CB         8.3280   34.3880   -0.9070 C.3   153  ARG153      0.0307
    158  CG         8.8770   33.7410   -2.1750 C.3   153  ARG153      0.0489
    159  CD         7.8580   33.6690   -3.3200 C.3   153  ARG153      0.2205
    160  NE         8.5400   33.1030   -4.4790 N.pl3 153  ARG153     -0.0865
    161  CZ         9.2950   33.7940   -5.3340 C.cat 153  ARG153      0.5346
    162  NH1        9.3720   35.1070   -5.2570 N.pl3 153  ARG153      0.1354
    163  NH2        9.9480   33.1720   -6.3000 N.pl3 153  ARG153      0.1354
    164  N         12.6390   31.3620    5.7820 N.3   156  LEU156     -0.1245
    165  CA        11.8490   31.4230    6.9920 C.3   156  LEU156      0.1561
    166  C         12.7250   31.8830    8.1510 C.2   156  LEU156      0.2260
    167  O         13.9500   31.7160    8.1120 O.2   156  LEU156     -0.2867
    168  CB        11.2600   30.0380    7.2580 C.3   156  LEU156      0.0270
    169  CG         9.9130   29.6210    6.6750 C.3   156  LEU156      0.0019
    170  CD1        9.5730   30.2790    5.3660 C.3   156  LEU156      0.0001
    171  CD2        9.8440   28.0800    6.6240 C.3   156  LEU156      0.0001
    172  N         12.7440   23.1130    1.1720 N.3   167  ASP167     -0.1225
    173  CA        12.1240   22.8400   -0.1080 C.3   167  ASP167      0.1805
    174  C         10.6110   22.9610    0.0550 C.2   167  ASP167      0.2597
    175  O          9.9570   22.0360    0.5090 O.2   167  ASP167     -0.2718
    176  CB        12.5040   21.4790   -0.6330 C.3   167  ASP167      0.1424
    177  CG        11.9950   21.2650   -2.0360 C.2   167  ASP167      0.3668
    178  OD1       11.2670   22.1580   -2.5490 O.co2 167  ASP167     -0.2456
    179  OD2       12.3560   20.2480   -2.6310 O.co2 167  ASP167     -0.2456
    180  N         10.0820   24.1380   -0.2760 N.am  168  PHE168     -0.1976
    181  CA         8.6890   24.4620   -0.0180 C.3   168  PHE168      0.1639
    182  C          7.9100   24.3700   -1.3000 C.2   168  PHE168      0.2290
    183  O          6.7770   24.8420   -1.3640 O.2   168  PHE168     -0.2864
    184  CB         8.5750   25.9100    0.5260 C.3   168  PHE168      0.0560
    185  CG         9.5130   26.2060    1.6400 C.ar  168  PHE168     -0.0200
    186  CD1       10.2280   27.4150    1.6780 C.ar  168  PHE168     -0.0042
    187  CD2        9.6680   25.3020    2.6650 C.ar  168  PHE168     -0.0042
    188  CE1       11.0940   27.7040    2.7340 C.ar  168  PHE168     -0.0003
    189  CE2       10.5360   25.5500    3.7160 C.ar  168  PHE168     -0.0003
    190  CZ        11.2610   26.7650    3.7600 C.ar  168  PHE168     -0.0000
    191  N          4.3110   23.0120   -1.2130 N.3   171  ALA171     -0.1231
    192  CA         3.3550   23.7080   -0.3600 C.3   171  ALA171      0.1694
    193  C          3.3190   25.1940   -0.6450 C.2   171  ALA171      0.2592
    194  O          2.7140   25.9560    0.0920 O.2   171  ALA171     -0.2718
    195  CB         3.6990   23.4630    1.0870 C.3   171  ALA171      0.0304
    196  N          3.9480   25.5840   -1.7450 N.am  172  ARG172     -0.1966
    197  CA         3.9960   26.9870   -2.1720 C.3   172  ARG172      0.1729
    198  C          2.7980   27.3270   -3.0600 C.2   172  ARG172      0.2616
    199  O          2.5560   26.6470   -4.0590 O.2   172  ARG172     -0.2715
    200  CB         5.3200   27.2190   -2.9190 C.3   172  ARG172      0.0348
    201  CG         5.3270   28.3510   -3.9200 C.3   172  ARG172      0.0492
    202  CD         5.2160   29.7160   -3.2660 C.3   172  ARG172      0.2205
    203  NE         6.1840   29.8220   -2.2110 N.pl3 172  ARG172     -0.0865
    204  CZ         6.1470   30.7170   -1.2250 C.cat 172  ARG172      0.5346
    205  NH1        5.1940   31.6300   -1.1360 N.pl3 172  ARG172      0.1354
    206  NH2        7.0810   30.6800   -0.2990 N.pl3 172  ARG172      0.1354
    207  N          2.0420   28.3630   -2.6900 N.am  173  ASP173     -0.1971
    208  CA         0.8490   28.7690   -3.4510 C.3   173  ASP173      0.1709
    209  C          1.1610   29.3970   -4.8290 C.2   173  ASP173      0.2293
    210  O          0.8840   30.5710   -5.0680 O.2   173  ASP173     -0.2864
    211  CB         0.0040   29.7800   -2.6480 C.3   173  ASP173      0.1436
    212  CG        -1.2320   30.2070   -3.3980 C.2   173  ASP173      0.3671
    213  OD1       -1.6780   29.4330   -4.2900 O.co2 173  ASP173     -0.2456
    214  OD2       -1.7820   31.3030   -3.0890 O.co2 173  ASP173     -0.2456
@<TRIPOS>BOND
     1   163   161    1
     2   161   162    1
     3   161   160    2
     4   210   209    2
     5   209   208    1
     6   160   159    1
     7   213   212   ar
     8   199   198    2
     9   201   202    1
    10   201   200    1
    11   208   207    1
    12   208   211    1
    13   212   214   ar
    14   212   211    1
    15   159   158    1
    16   202   203    1
    17   198   207   am
    18   198   197    1
    19   200   197    1
    20   179   177   ar
    21   178   177   ar
    22   203   204    2
    23   158   157    1
    24   197   196    1
    25   177   176    1
    26    50    51    1
    27   196   193   am
    28   183   182    2
    29   182   181    1
    30   204   205    1
    31   204   206    1
    32   191   192    1
    33    51    54    1
    34    51    52    1
    35    54    55    1
    36    57    56   ar
    37   157   154    1
    38   193   192    1
    39   193   194    2
    40   176   173    1
    41   192   195    1
    42   180   181    1
    43   180   174   am
    44    55    56    1
    45   173   174    1
    46   173   172    1
    47   153   154    1
    48    56    58   ar
    49   181   184    1
    50   174   175    2
    51    52    53    2
    52   154   155    1
    53   184   185    1
    54   155   156    2
    55   185   186   ar
    56   185   187   ar
    57   186   188   ar
    58    59    60    1
    59    49    48    1
    60    47    48    1
    61    47    46    1
    62    27    28    2
    63    27    26    1
    64   187   189   ar
    65   188   190   ar
    66    46    45    1
    67    60    63    1
    68    60    61    1
    69    64    63    1
    70    64    65    1
    71    26    25    1
    72   144   142   ar
    73   189   190   ar
    74    61    62    2
    75   151   150    2
    76    80    78    1
    77    65    66    1
    78   152   150   am
    79    29    30    1
    80   145   146    1
    81    45    42    1
    82    35    33    1
    83   142   141    1
    84   142   143   ar
    85   150   149    1
    86   141   138    1
    87    43    44    2
    88    43    42    1
    89    25    19   am
    90   146   149    1
    91   146   147    1
    92    42    41    1
    93    78    79    1
    94    78    75    1
    95    20    19    2
    96   170   169    1
    97    33    30    1
    98    33    34    1
    99    30    31    1
   100    16    14    1
   101    19    18    1
   102   164   165    1
   103   138   139    1
   104   138   137    1
   105   139   140    2
   106   147   148    2
   107    74    75    1
   108    32    31    2
   109    75    76    1
   110   171   169    1
   111   169   168    1
   112    73    71    1
   113    70    69    2
   114    14    15    1
   115    14    11    1
   116    67    68    1
   117   165   168    1
   118   165   166    1
   119    71    68    1
   120    71    72    1
   121   137   135   am
   122    18    17    1
   123    18    21    1
   124    87    85    1
   125    17    12   am
   126    77    76    2
   127    21    22    1
   128    68    69    1
   129    12    13    2
   130    12    11    1
   131    11    10    1
   132   167   166    2
   133   135   136    2
   134   135   134    1
   135    86    85    1
   136    85    82    1
   137    22    23    1
   138    22    24    1
   139   134   133    1
   140    10     3   am
   141    40    37    1
   142    82    81    1
   143    82    83    1
   144    38    39    2
   145    38    37    1
   146   114   113    1
   147     3     4    2
   148     3     2    1
   149   133   123   am
   150    91    90    2
   151    37    36    1
   152   113   110    1
   153   124   123    2
   154    83    88   am
   155    83    84    2
   156    88    89    1
   157   123   122    1
   158    95    94   ar
   159   112   111    2
   160     2     5    1
   161     2     1    1
   162    90    89    1
   163    90    97   am
   164   109   110    1
   165   109    99   am
   166   110   111    1
   167    89    92    1
   168     5     6    1
   169    92    93    1
   170     8     7    1
   171     8     9    1
   172     6     7    1
   173    93    94    1
   174    94    96   ar
   175   111   115   am
   176   105   103   ar
   177   105   107   ar
   178   103   102   ar
   179   122   125    1
   180   122   121    1
   181    98    97    1
   182    98    99    1
   183    98   101    1
   184    99   100    2
   185   125   126    1
   186   121   117   am
   187   107   108    1
   188   107   106   ar
   189   102   101    1
   190   102   104   ar
   191   115   116    1
   192   117   118    2
   193   117   116    1
   194   116   119    1
   195   126   127   ar
   196   126   128   ar
   197   106   104   ar
   198   127   129   ar
   199   128   130   ar
   200   119   120    1
   201   129   131   ar
   202   130   131   ar
   203   131   132    1
