@<TRIPOS>MOLECULE
tmp/3dpmB00.pdb
 95 92 0 0 0
SMALL
GASTEIGER

@<TRIPOS>ATOM
      1  N        -15.8960    1.1470   53.6130 N.3    73  HIS73      -0.1241
      2  CA       -15.3010    1.0170   52.2840 C.3    73  HIS73       0.1621
      3  C        -16.3330    0.8480   51.1790 C.2    73  HIS73       0.2264
      4  O        -16.0070    0.9670   50.0030 O.2    73  HIS73      -0.2867
      5  CB       -14.3440   -0.1650   52.2580 C.3    73  HIS73       0.0745
      6  CG       -13.0370    0.1240   52.9160 C.ar   73  HIS73       0.0817
      7  ND1      -12.2770   -0.8500   53.5290 N.ar   73  HIS73      -0.2268
      8  CD2      -12.3610    1.2870   53.0720 C.ar   73  HIS73       0.1154
      9  CE1      -11.1930   -0.2960   54.0390 C.ar   73  HIS73       0.1986
     10  NE2      -11.2200    0.9990   53.7760 N.ar   73  HIS73      -0.2212
     11  N         -7.0910    8.5590   57.7790 N.3   298  PRO298     -0.2102
     12  CA        -7.9530    7.8400   56.8360 C.3   298  PRO298      0.1504
     13  C         -7.3830    6.5170   56.3190 C.2   298  PRO298      0.2576
     14  O         -8.1150    5.6790   55.8030 O.2   298  PRO298     -0.2718
     15  CB        -8.1290    8.8470   55.7120 C.3   298  PRO298      0.0282
     16  CG        -6.7590    9.4670   55.6380 C.3   298  PRO298      0.0208
     17  CD        -6.3990    9.6760   57.1080 C.3   298  PRO298      0.0893
     18  N         -6.0830    6.3260   56.4600 N.am  299  GLY299     -0.1943
     19  CA        -5.4860    5.1130   55.9620 C.3   299  GLY299      0.2014
     20  C         -4.7560    5.4860   54.6880 C.2   299  GLY299      0.2639
     21  O         -4.3990    6.6470   54.5000 O.2   299  GLY299     -0.2714
     22  N         -4.5370    4.5200   53.8060 N.am  300  GLY300     -0.1954
     23  CA        -3.8440    4.8080   52.5730 C.3   300  GLY300      0.1869
     24  C         -3.1040    3.6080   52.0290 C.2   300  GLY300      0.2309
     25  O         -3.6800    2.5340   51.8880 O.2   300  GLY300     -0.2863
     26  N         -0.7340    0.4140   51.9890 N.3   302  VAL302     -0.1245
     27  CA        -0.2850   -0.6560   52.8860 C.3   302  VAL302      0.1561
     28  C          1.2350   -0.7980   52.9450 C.2   302  VAL302      0.2260
     29  O          1.8050   -1.0150   54.0140 O.2   302  VAL302     -0.2867
     30  CB        -0.8530   -2.0440   52.4660 C.3   302  VAL302      0.0252
     31  CG1       -0.4040   -3.1260   53.4470 C.3   302  VAL302      0.0019
     32  CG2       -2.3440   -1.9990   52.4440 C.3   302  VAL302      0.0019
     33  N         -5.8390  -11.9190   54.8430 N.3   322  HIS322     -0.1241
     34  CA        -7.1120  -11.5690   54.2100 C.3   322  HIS322      0.1621
     35  C         -7.8220  -12.7050   53.4740 C.2   322  HIS322      0.2264
     36  O         -7.2060  -13.3850   52.6490 O.2   322  HIS322     -0.2867
     37  CB        -6.8920  -10.4450   53.1990 C.3   322  HIS322      0.0745
     38  CG        -6.4040   -9.1750   53.8040 C.ar  322  HIS322      0.0817
     39  ND1       -7.0180   -7.9630   53.5750 N.ar  322  HIS322     -0.2268
     40  CD2       -5.3680   -8.9230   54.6390 C.ar  322  HIS322      0.1154
     41  CE1       -6.3820   -7.0190   54.2450 C.ar  322  HIS322      0.1986
     42  NE2       -5.3790   -7.5760   54.8990 N.ar  322  HIS322     -0.2212
     43  N         -1.4270   -9.8380   52.3130 N.3   395  LEU395     -0.1245
     44  CA        -1.2440   -8.9060   51.1980 C.3   395  LEU395      0.1561
     45  C          0.2170   -8.9330   50.7440 C.2   395  LEU395      0.2260
     46  O          1.1330   -8.8270   51.5640 O.2   395  LEU395     -0.2867
     47  CB        -1.6540   -7.4840   51.6050 C.3   395  LEU395      0.0270
     48  CG        -3.1380   -7.3390   51.9670 C.3   395  LEU395      0.0019
     49  CD1       -3.4850   -5.8820   52.2860 C.3   395  LEU395      0.0001
     50  CD2       -3.9750   -7.8420   50.7960 C.3   395  LEU395      0.0001
     51  N         -9.1010    1.5760   57.6400 N.3   423  SER423     -0.1258
     52  CA        -8.0480    1.0260   56.7730 C.3   423  SER423      0.1718
     53  C         -6.7410    0.9650   57.5610 C.3   423  SER423      0.2461
     54  O         -6.6550   -0.0260   58.3190 O.3   423  SER423     -0.2019
     55  CB        -7.7700    1.8790   55.5310 C.3   423  SER423      0.2051
     56  OG        -7.3480    1.0790   54.4120 O.3   423  SER423     -0.2187
     57  N         -5.5780    1.2710   56.7530 N.3   424  CYS424     -0.1805
     58  CA        -4.3290    1.1270   57.4570 C.3   424  CYS424      0.1513
     59  C         -4.2710    1.6410   58.8810 C.2   424  CYS424      0.2254
     60  O         -3.4650    1.1560   59.6760 O.2   424  CYS424     -0.2867
     61  CB        -3.2440    1.7980   56.6340 C.3   424  CYS424      0.0940
     62  SG        -3.0510    1.0180   55.0390 S.3   424  CYS424     -0.0801
     63  N         -5.1320   -1.1760   60.9660 N.3   427  PHE427     -0.1241
     64  CA        -4.0260   -2.1300   60.9310 C.3   427  PHE427      0.1605
     65  C         -2.8380   -1.7880   61.8180 C.2   427  PHE427      0.2264
     66  O         -2.2830   -2.6680   62.4770 O.2   427  PHE427     -0.2867
     67  CB        -3.5220   -2.2890   59.4960 C.3   427  PHE427      0.0534
     68  CG        -4.5450   -2.8370   58.5480 C.ar  427  PHE427     -0.0203
     69  CD1       -4.4660   -2.5520   57.1790 C.ar  427  PHE427     -0.0042
     70  CD2       -5.5830   -3.6400   59.0090 C.ar  427  PHE427     -0.0042
     71  CE1       -5.4120   -3.0610   56.2850 C.ar  427  PHE427     -0.0003
     72  CE2       -6.5330   -4.1530   58.1270 C.ar  427  PHE427     -0.0003
     73  CZ        -6.4490   -3.8630   56.7610 C.ar  427  PHE427     -0.0000
     74  N        -10.4180   -4.5340   54.8860 N.3   450  GLY450     -0.1210
     75  CA       -10.5070   -5.1700   53.5860 C.3   450  GLY450      0.1956
     76  C        -10.1190   -4.1650   52.5170 C.2   450  GLY450      0.2612
     77  O        -10.4390   -2.9830   52.6430 O.2   450  GLY450     -0.2717
     78  N         -9.4260   -4.6060   51.4700 N.am  451  PHE451     -0.1962
     79  CA        -9.0470   -3.6750   50.4160 C.3   451  PHE451      0.1771
     80  C        -10.2460   -3.3430   49.5290 C.2   451  PHE451      0.2619
     81  O        -11.1600   -4.1450   49.3430 O.2   451  PHE451     -0.2715
     82  CB        -7.8690   -4.2160   49.5880 C.3   451  PHE451      0.0574
     83  CG        -8.1880   -5.4360   48.7830 C.ar  451  PHE451     -0.0200
     84  CD1       -8.9580   -5.3450   47.6270 C.ar  451  PHE451     -0.0042
     85  CD2       -7.7110   -6.6840   49.1790 C.ar  451  PHE451     -0.0042
     86  CE1       -9.2530   -6.4840   46.8710 C.ar  451  PHE451     -0.0003
     87  CE2       -8.0000   -7.8340   48.4290 C.ar  451  PHE451     -0.0003
     88  CZ        -8.7720   -7.7310   47.2750 C.ar  451  PHE451     -0.0000
     89  N        -10.2300   -2.1370   48.9910 N.am  452  VAL452     -0.1977
     90  CA       -11.3150   -1.6470   48.1650 C.3   452  VAL452      0.1596
     91  C        -11.0180   -1.7870   46.6940 C.2   452  VAL452      0.2287
     92  O         -9.8700   -1.9060   46.2920 O.2   452  VAL452     -0.2864
     93  CB       -11.5600   -0.1500   48.4410 C.3   452  VAL452      0.0276
     94  CG1      -12.8130    0.3190   47.7280 C.3   452  VAL452      0.0022
     95  CG2      -11.6500    0.0920   49.9310 C.3   452  VAL452      0.0022
@<TRIPOS>BOND
     1    92    91    2
     2    91    90    1
     3    86    88   ar
     4    86    84   ar
     5    88    87   ar
     6    84    83   ar
     7    94    93    1
     8    90    93    1
     9    90    89    1
    10    87    85   ar
    11    93    95    1
    12    83    85   ar
    13    83    82    1
    14    89    80   am
    15    81    80    2
    16    80    79    1
    17    82    79    1
    18     4     3    2
    19    79    78    1
    20    45    44    1
    21    45    46    2
    22    50    48    1
    23     3     2    1
    24    44    47    1
    25    44    43    1
    26    78    76   am
    27    47    48    1
    28    25    24    2
    29    48    49    1
    30    26    27    1
    31    24    23    1
    32     5     2    1
    33     5     6    1
    34     2     1    1
    35    32    30    1
    36    30    27    1
    37    30    31    1
    38    76    77    2
    39    76    75    1
    40    23    22    1
    41    36    35    2
    42    27    28    1
    43     6     8   ar
    44     6     7   ar
    45    28    29    2
    46     8    10   ar
    47    37    38    1
    48    37    34    1
    49    35    34    1
    50     7     9   ar
    51    39    38   ar
    52    39    41   ar
    53    75    74    1
    54    10     9   ar
    55    38    40   ar
    56    22    20   am
    57    34    33    1
    58    41    42   ar
    59    56    55    1
    60    21    20    2
    61    40    42   ar
    62    20    19    1
    63    62    61    1
    64    55    52    1
    65    16    15    1
    66    16    17    1
    67    15    12    1
    68    14    13    2
    69    19    18    1
    70    71    73   ar
    71    71    69   ar
    72    13    18   am
    73    13    12    1
    74    61    58    1
    75    57    58    1
    76    57    53    1
    77    73    72   ar
    78    52    53    1
    79    52    51    1
    80    12    11    1
    81    17    11    1
    82    69    68   ar
    83    58    59    1
    84    53    54    1
    85    72    70   ar
    86    68    70   ar
    87    68    67    1
    88    59    60    2
    89    67    64    1
    90    64    63    1
    91    64    65    1
    92    65    66    2
