@<TRIPOS>MOLECULE
tmp/3dpyB00.pdb
 125 123 0 0 0
SMALL
GASTEIGER

@<TRIPOS>ATOM
      1  N         73.2640    9.5010   -3.6880 N.3    79  CYS79      -0.1221
      2  CA        72.5580   10.6440   -4.2470 C.3    79  CYS79       0.1808
      3  C         73.3790   11.9320   -4.1240 C.2    79  CYS79       0.2601
      4  O         72.9620   12.9800   -4.5880 O.2    79  CYS79      -0.2717
      5  CB        71.2040   10.8080   -3.5650 C.3    79  CYS79       0.0970
      6  SG        71.3390   11.3020   -1.8390 S.3    79  CYS79      -0.0800
      7  N         74.5460   11.8500   -3.4980 N.am   80  LEU80      -0.1979
      8  CA        75.4340   13.0050   -3.4050 C.3    80  LEU80       0.1596
      9  C         76.7760   12.7120   -4.0550 C.2    80  LEU80       0.2287
     10  O         77.7650   13.3910   -3.7990 O.2    80  LEU80      -0.2864
     11  CB        75.6190   13.4550   -1.9510 C.3    80  LEU80       0.0297
     12  CG        74.3810   14.0840   -1.2830 C.3    80  LEU80       0.0022
     13  CD1       74.6450   14.3810    0.1670 C.3    80  LEU80       0.0001
     14  CD2       73.9340   15.3550   -2.0020 C.3    80  LEU80       0.0001
     15  N         77.4980   13.4070   -6.9750 N.3    82  ALA82      -0.1231
     16  CA        77.8880   14.5480   -7.8050 C.3    82  ALA82       0.1694
     17  C         78.0490   15.8060   -6.9570 C.2    82  ALA82       0.2592
     18  O         78.0520   16.9220   -7.4860 O.2    82  ALA82      -0.2718
     19  CB        76.9020   14.7790   -8.9460 C.3    82  ALA82       0.0304
     20  N         78.1950   15.6240   -5.6460 N.am   83  SER83      -0.1952
     21  CA        78.3630   16.7510   -4.7460 C.3    83  SER83       0.1924
     22  C         79.4250   16.4830   -3.6890 C.2    83  SER83       0.2314
     23  O         79.2640   16.8470   -2.5260 O.2    83  SER83      -0.2863
     24  CB        77.0320   17.0980   -4.0880 C.3    83  SER83       0.2116
     25  OG        76.0590   17.4150   -5.0750 O.3    83  SER83      -0.2180
     26  N         81.0380   19.3110   -1.7040 N.3    86  TRP86      -0.1241
     27  CA        80.1050   19.8000   -0.6920 C.3    86  TRP86       0.1605
     28  C         80.2920   19.0180    0.5890 C.2    86  TRP86       0.2264
     29  O         80.2590   19.5740    1.6890 O.2    86  TRP86      -0.2867
     30  CB        78.6550   19.6500   -1.1490 C.3    86  TRP86       0.0550
     31  CG        78.1630   20.7460   -2.0490 C.ar   86  TRP86       0.0003
     32  CD1       77.9080   20.6540   -3.3850 C.ar   86  TRP86       0.0946
     33  CD2       77.8420   22.0940   -1.6710 C.ar   86  TRP86       0.0152
     34  NE1       77.4490   21.8560   -3.8610 N.ar   86  TRP86      -0.2442
     35  CE2       77.4040   22.7590   -2.8310 C.ar   86  TRP86       0.0810
     36  CE3       77.8840   22.7990   -0.4660 C.ar   86  TRP86       0.0012
     37  CZ2       77.0110   24.1010   -2.8240 C.ar   86  TRP86       0.0191
     38  CZ3       77.4940   24.1360   -0.4620 C.ar   86  TRP86       0.0001
     39  CH2       77.0640   24.7680   -1.6330 C.ar   86  TRP86       0.0015
     40  N         80.9790   20.8090    3.9890 N.3    90  TRP90      -0.1241
     41  CA        80.0400   20.6630    5.1130 C.3    90  TRP90       0.1605
     42  C         80.7050   20.1090    6.3640 C.2    90  TRP90       0.2264
     43  O         80.4270   20.5570    7.4830 O.2    90  TRP90      -0.2867
     44  CB        78.8600   19.7550    4.7600 C.3    90  TRP90       0.0550
     45  CG        77.9400   20.3250    3.7450 C.ar   90  TRP90       0.0003
     46  CD1       77.6060   21.6350    3.5870 C.ar   90  TRP90       0.0946
     47  CD2       77.2230   19.6010    2.7430 C.ar   90  TRP90       0.0152
     48  NE1       76.7300   21.7750    2.5440 N.ar   90  TRP90      -0.2442
     49  CE2       76.4800   20.5410    2.0050 C.ar   90  TRP90       0.0810
     50  CE3       77.1420   18.2490    2.3940 C.ar   90  TRP90       0.0012
     51  CZ2       75.6590   20.1720    0.9380 C.ar   90  TRP90       0.0191
     52  CZ3       76.3270   17.8850    1.3390 C.ar   90  TRP90       0.0001
     53  CH2       75.5990   18.8440    0.6200 C.ar   90  TRP90       0.0015
     54  N         81.7500   17.5290   -9.3900 N.3   126  GLY126     -0.1225
     55  CA        81.1530   16.8960   -8.2150 C.3   126  GLY126      0.1811
     56  C         81.9890   15.7250   -7.7450 C.2   126  GLY126      0.2280
     57  O         81.7720   15.1780   -6.6610 O.2   126  GLY126     -0.2866
     58  N         81.1250   22.6630  -12.2410 N.3   133  HIS133     -0.1241
     59  CA        79.8120   23.1490  -11.8540 C.3   133  HIS133      0.1621
     60  C         80.0690   24.1710  -10.7550 C.2   133  HIS133      0.2264
     61  O         81.0060   24.0100   -9.9650 O.2   133  HIS133     -0.2867
     62  CB        78.9920   21.9720  -11.3210 C.3   133  HIS133      0.0745
     63  CG        77.5480   22.2730  -11.0730 C.ar  133  HIS133      0.0817
     64  ND1       77.1170   23.0720  -10.0360 N.ar  133  HIS133     -0.2268
     65  CD2       76.4300   21.8250  -11.6940 C.ar  133  HIS133      0.1154
     66  CE1       75.7980   23.1280  -10.0460 C.ar  133  HIS133      0.1986
     67  NE2       75.3570   22.3800  -11.0440 N.ar  133  HIS133     -0.2212
     68  N         78.4180   25.0110   -8.0030 N.3   135  ALA135     -0.1231
     69  CA        78.1280   24.6670   -6.6140 C.3   135  ALA135      0.1679
     70  C         79.3180   23.9590   -5.9610 C.2   135  ALA135      0.2434
     71  O         79.7700   24.3640   -4.8870 O.2   135  ALA135     -0.2733
     72  CB        76.8650   23.8380   -6.5100 C.3   135  ALA135      0.0304
     73  N         79.8420   22.9050   -6.6150 N.am  136  PRO136     -0.2729
     74  CA        81.0210   22.2530   -6.0440 C.3   136  PRO136      0.1401
     75  C         82.3070   23.0810   -6.1890 C.2   136  PRO136      0.2269
     76  O         83.2760   22.8360   -5.4640 O.2   136  PRO136     -0.2865
     77  CB        81.1230   20.9380   -6.8290 C.3   136  PRO136      0.0296
     78  CG        80.4250   21.2030   -8.1210 C.3   136  PRO136      0.0237
     79  CD        79.3390   22.2080   -7.8120 C.3   136  PRO136      0.0939
     80  N         71.2010   25.1240  -15.7160 N.3   182  GLU182     -0.1245
     81  CA        70.1620   26.0770  -15.3560 C.3   182  GLU182      0.1567
     82  C         70.7450   27.4020  -14.8480 C.2   182  GLU182      0.2260
     83  O         71.9400   27.4920  -14.5500 O.2   182  GLU182     -0.2867
     84  CB        69.2170   25.4630  -14.3090 C.3   182  GLU182      0.0388
     85  CG        69.8020   25.3310  -12.8990 C.3   182  GLU182      0.1160
     86  CD        70.7380   24.1220  -12.7260 C.2   182  GLU182      0.3649
     87  OE1       71.0760   23.4430  -13.7150 O.co2 182  GLU182     -0.2457
     88  OE2       71.1460   23.8510  -11.5860 O.co2 182  GLU182     -0.2457
     89  N         71.8500   31.3080   -7.2100 N.3   186  ARG186     -0.1245
     90  CA        72.9510   30.5640   -6.5950 C.3   186  ARG186      0.1563
     91  C         74.2450   30.8130   -7.3590 C.2   186  ARG186      0.2260
     92  O         75.3200   30.9380   -6.7570 O.2   186  ARG186     -0.2867
     93  CB        72.6630   29.0590   -6.6010 C.3   186  ARG186      0.0307
     94  CG        71.6120   28.5840   -5.6100 C.3   186  ARG186      0.0489
     95  CD        71.3180   27.1250   -5.8550 C.3   186  ARG186      0.2205
     96  NE        70.8720   26.8910   -7.2220 N.pl3 186  ARG186     -0.0865
     97  CZ        71.0730   25.7660   -7.9020 C.cat 186  ARG186      0.5346
     98  NH1       71.7260   24.7530   -7.3400 N.pl3 186  ARG186      0.1354
     99  NH2       70.6300   25.6550   -9.1490 N.pl3 186  ARG186      0.1354
    100  N         70.5710   30.1580    6.5590 N.3   287  TRP287     -0.1241
    101  CA        70.2290   30.8990    5.3500 C.3   287  TRP287      0.1605
    102  C         69.3910   32.1400    5.6760 C.2   287  TRP287      0.2264
    103  O         69.6300   33.2200    5.1440 O.2   287  TRP287     -0.2867
    104  CB        69.4940   30.0100    4.3450 C.3   287  TRP287      0.0550
    105  CG        70.2420   28.7700    3.9270 C.ar  287  TRP287      0.0003
    106  CD1       69.8580   27.4740    4.1400 C.ar  287  TRP287      0.0946
    107  CD2       71.4900   28.7040    3.2150 C.ar  287  TRP287      0.0152
    108  NE1       70.7870   26.6080    3.6110 N.ar  287  TRP287     -0.2442
    109  CE2       71.7960   27.3320    3.0310 C.ar  287  TRP287      0.0810
    110  CE3       72.3730   29.6640    2.7140 C.ar  287  TRP287      0.0012
    111  CZ2       72.9490   26.8970    2.3690 C.ar  287  TRP287      0.0191
    112  CZ3       73.5250   29.2280    2.0470 C.ar  287  TRP287      0.0001
    113  CH2       73.7990   27.8560    1.8840 C.ar  287  TRP287      0.0015
    114  N         74.6330   17.9860    5.5360 N.3   345  TYR345     -0.1241
    115  CA        74.1290   19.2930    5.1430 C.3   345  TYR345      0.1605
    116  C         73.5020   20.0030    6.3370 C.2   345  TYR345      0.2264
    117  O         73.8550   21.1410    6.6450 O.2   345  TYR345     -0.2867
    118  CB        73.1210   19.1690    3.9830 C.3   345  TYR345      0.0534
    119  CG        72.2360   20.3920    3.7670 C.ar  345  TYR345     -0.0201
    120  CD1       72.7060   21.5110    3.0750 C.ar  345  TYR345     -0.0009
    121  CD2       70.9360   20.4270    4.2510 C.ar  345  TYR345     -0.0009
    122  CE1       71.9020   22.6330    2.8760 C.ar  345  TYR345      0.0417
    123  CE2       70.1280   21.5370    4.0560 C.ar  345  TYR345      0.0417
    124  CZ        70.6200   22.6380    3.3670 C.ar  345  TYR345      0.1957
    125  OH        69.8240   23.7440    3.1800 O.3   345  TYR345     -0.2866
@<TRIPOS>BOND
     1    80    81    1
     2    81    82    1
     3    81    84    1
     4    82    83    2
     5    84    85    1
     6    87    86   ar
     7    85    86    1
     8    86    88   ar
     9    58    59    1
    10    59    62    1
    11    59    60    1
    12    65    63   ar
    13    65    67   ar
    14    62    63    1
    15    63    64   ar
    16    67    66   ar
    17    60    61    2
    18    66    64   ar
    19    54    55    1
    20    99    97    1
    21    19    16    1
    22    55    56    1
    23    78    79    1
    24    78    77    1
    25    68    69    1
    26    97    98    1
    27    97    96    2
    28    79    73    1
    29    16    15    1
    30    16    17    1
    31    56    57    2
    32    18    17    2
    33    91    92    2
    34    91    90    1
    35    96    95    1
    36    89    90    1
    37    17    20   am
    38    77    74    1
    39    73    74    1
    40    73    70   am
    41    69    72    1
    42    69    70    1
    43    93    90    1
    44    93    94    1
    45    75    74    1
    46    75    76    2
    47    70    71    2
    48    95    94    1
    49    20    21    1
    50    25    24    1
    51    21    24    1
    52    21    22    1
    53     4     3    2
    54     2     3    1
    55     2     1    1
    56     2     5    1
    57     3     7   am
    58     9    10    2
    59     9     8    1
    60    34    32   ar
    61    34    35   ar
    62    22    23    2
    63     5     6    1
    64     7     8    1
    65     8    11    1
    66    32    31   ar
    67    35    37   ar
    68    35    33   ar
    69    37    39   ar
    70    31    33   ar
    71    31    30    1
    72    14    12    1
    73    11    12    1
    74    26    27    1
    75    33    36   ar
    76    39    38   ar
    77    12    13    1
    78    30    27    1
    79    27    28    1
    80    36    38   ar
    81    28    29    2
    82    53    51   ar
    83    53    52   ar
    84    51    49   ar
    85    52    50   ar
    86   113   112   ar
    87   113   111   ar
    88    49    48   ar
    89    49    47   ar
    90   112   110   ar
    91   111   109   ar
    92    50    47   ar
    93    48    46   ar
    94   110   107   ar
    95    47    45   ar
    96   122   120   ar
    97   122   124   ar
    98   109   107   ar
    99   109   108   ar
   100   120   119   ar
   101   125   124    1
   102   107   105   ar
   103   124   123   ar
   104    46    45   ar
   105   108   106   ar
   106    45    44    1
   107   119   118    1
   108   119   121   ar
   109   105   106   ar
   110   105   104    1
   111   118   115    1
   112    40    41    1
   113   123   121   ar
   114   104   101    1
   115    44    41    1
   116    41    42    1
   117   115   114    1
   118   115   116    1
   119   103   102    2
   120   101   102    1
   121   101   100    1
   122   116   117    2
   123    42    43    2
