@<TRIPOS>MOLECULE
tmp/3dq0A05.pdb
 166 159 0 0 0
SMALL
GASTEIGER

@<TRIPOS>ATOM
      1  N         36.5390    5.6870    8.9520 N.3   138  ASP138     -0.1225
      2  CA        36.7720    7.1220    8.7350 C.3   138  ASP138      0.1805
      3  C         35.4550    7.8920    8.6520 C.2   138  ASP138      0.2597
      4  O         35.4060    9.0680    8.9980 O.2   138  ASP138     -0.2718
      5  CB        37.5690    7.3730    7.4410 C.3   138  ASP138      0.1424
      6  CG        39.0060    6.8810    7.5240 C.2   138  ASP138      0.3668
      7  OD1       39.5160    6.7020    8.6500 O.co2 138  ASP138     -0.2456
      8  OD2       39.6250    6.6870    6.4540 O.co2 138  ASP138     -0.2456
      9  N         34.4050    7.2010    8.2110 N.am  139  TYR139     -0.1976
     10  CA        33.1040    7.7910    7.8860 C.3   139  TYR139      0.1639
     11  C         32.0140    7.1220    8.7240 C.2   139  TYR139      0.2290
     12  O         31.8650    5.9030    8.7020 O.2   139  TYR139     -0.2864
     13  CB        32.8410    7.5970    6.3860 C.3   139  TYR139      0.0560
     14  CG        31.5070    8.0890    5.8650 C.ar  139  TYR139     -0.0198
     15  CD1       31.2640    9.4450    5.6870 C.ar  139  TYR139     -0.0009
     16  CD2       30.4980    7.1870    5.5210 C.ar  139  TYR139     -0.0009
     17  CE1       30.0360    9.9010    5.1960 C.ar  139  TYR139      0.0417
     18  CE2       29.2710    7.6290    5.0330 C.ar  139  TYR139      0.0417
     19  CZ        29.0520    8.9850    4.8680 C.ar  139  TYR139      0.1957
     20  OH        27.8420    9.4280    4.3840 O.3   139  TYR139     -0.2866
     21  N         37.7620   -0.4980    9.1610 N.3   153  ILE153     -0.1245
     22  CA        39.1050    0.0040    9.5210 C.3   153  ILE153      0.1561
     23  C         39.2760    1.5260    9.5190 C.2   153  ILE153      0.2260
     24  O         38.6770    2.2470    8.7100 O.2   153  ILE153     -0.2867
     25  CB        40.2350   -0.6590    8.6710 C.3   153  ILE153      0.0252
     26  CG1       40.0840   -0.3030    7.1870 C.3   153  ILE153      0.0019
     27  CG2       40.2400   -2.1710    8.8840 C.3   153  ILE153      0.0019
     28  CD1       41.3280   -0.5870    6.3390 C.3   153  ILE153      0.0001
     29  N         47.1800    7.3800   10.6520 N.3   252  GLU252     -0.1245
     30  CA        46.9350    7.1660    9.2300 C.3   252  GLU252      0.1567
     31  C         48.0230    7.9170    8.4770 C.2   252  GLU252      0.2260
     32  O         48.9780    8.4300    9.0790 O.2   252  GLU252     -0.2867
     33  CB        45.5160    7.6240    8.8090 C.3   252  GLU252      0.0388
     34  CG        44.4010    6.7410    9.3870 C.3   252  GLU252      0.1160
     35  CD        43.0420    6.8610    8.6870 C.2   252  GLU252      0.3649
     36  OE1       42.0840    6.2520    9.2110 O.co2 252  GLU252     -0.2457
     37  OE2       42.9200    7.5410    7.6380 O.co2 252  GLU252     -0.2457
     38  N         34.6180   13.8870   11.3550 N.3   341  ARG341     -0.1231
     39  CA        35.3110   14.8220   10.4580 C.3   341  ARG341      0.1694
     40  C         34.9420   14.6760    8.9730 C.2   341  ARG341      0.2591
     41  O         34.9680   15.6550    8.2310 O.2   341  ARG341     -0.2718
     42  CB        36.8370   14.7340   10.6380 C.3   341  ARG341      0.0321
     43  CG        37.4580   13.4130   10.1490 C.3   341  ARG341      0.0489
     44  CD        38.8200   13.1110   10.7970 C.3   341  ARG341      0.2205
     45  NE        39.3190   11.8080   10.3490 N.pl3 341  ARG341     -0.0865
     46  CZ        38.8860   10.6300   10.7980 C.cat 341  ARG341      0.5346
     47  NH1       37.9570   10.5540   11.7470 N.pl3 341  ARG341      0.1354
     48  NH2       39.3980    9.5110   10.3050 N.pl3 341  ARG341      0.1354
     49  N         34.5950   13.4640    8.5490 N.am  342  VAL342     -0.1980
     50  CA        34.3020   13.1970    7.1360 C.3   342  VAL342      0.1595
     51  C         32.8590   13.5880    6.7540 C.2   342  VAL342      0.2287
     52  O         32.5640   13.7800    5.5670 O.2   342  VAL342     -0.2864
     53  CB        34.6610   11.7360    6.7330 C.3   342  VAL342      0.0276
     54  CG1       34.3520   11.4640    5.2530 C.3   342  VAL342      0.0022
     55  CG2       36.1430   11.4550    7.0180 C.3   342  VAL342      0.0022
     56  N         33.1320   16.8180    5.0530 N.3   345  GLU345     -0.1245
     57  CA        33.6250   16.6010    3.6930 C.3   345  GLU345      0.1567
     58  C         32.4800   16.2270    2.7420 C.2   345  GLU345      0.2260
     59  O         32.4260   16.7170    1.6090 O.2   345  GLU345     -0.2867
     60  CB        34.7190   15.5290    3.6740 C.3   345  GLU345      0.0388
     61  CG        35.5790   15.5440    2.4140 C.3   345  GLU345      0.1160
     62  CD        36.7430   14.5590    2.4630 C.2   345  GLU345      0.3649
     63  OE1       37.1240   14.1220    3.5740 O.co2 345  GLU345     -0.2457
     64  OE2       37.2810   14.2290    1.3780 O.co2 345  GLU345     -0.2457
     65  N         29.5120   14.6160   -4.6340 N.3   355  TRP355     -0.1241
     66  CA        29.3630   13.4530   -3.7590 C.3   355  TRP355      0.1605
     67  C         28.6080   12.3370   -4.4710 C.2   355  TRP355      0.2264
     68  O         29.0620   11.1960   -4.4860 O.2   355  TRP355     -0.2867
     69  CB        28.6660   13.8240   -2.4500 C.3   355  TRP355      0.0550
     70  CG        28.6120   12.6980   -1.4580 C.ar  355  TRP355      0.0003
     71  CD1       27.5350   11.9040   -1.1700 C.ar  355  TRP355      0.0946
     72  CD2       29.6850   12.2390   -0.6230 C.ar  355  TRP355      0.0152
     73  NE1       27.8730   10.9780   -0.2080 N.ar  355  TRP355     -0.2442
     74  CE2       29.1860   11.1620    0.1450 C.ar  355  TRP355      0.0810
     75  CE3       31.0230   12.6320   -0.4520 C.ar  355  TRP355      0.0012
     76  CZ2       29.9770   10.4760    1.0780 C.ar  355  TRP355      0.0191
     77  CZ3       31.8090   11.9460    0.4750 C.ar  355  TRP355      0.0001
     78  CH2       31.2820   10.8810    1.2250 C.ar  355  TRP355      0.0015
     79  N         36.7480    3.6100   -6.5590 N.3   361  TRP361     -0.1241
     80  CA        37.7350    3.5270   -5.4910 C.3   361  TRP361      0.1605
     81  C         38.5820    2.2640   -5.6190 C.2   361  TRP361      0.2264
     82  O         38.0840    1.2300   -6.0470 O.2   361  TRP361     -0.2867
     83  CB        37.0050    3.5380   -4.1490 C.3   361  TRP361      0.0550
     84  CG        36.5080    4.8880   -3.7510 C.ar  361  TRP361      0.0003
     85  CD1       36.5580    6.0370   -4.4910 C.ar  361  TRP361      0.0946
     86  CD2       35.8530    5.2320   -2.5240 C.ar  361  TRP361      0.0152
     87  NE1       36.0030    7.0730   -3.7940 N.ar  361  TRP361     -0.2442
     88  CE2       35.5610    6.6100   -2.5830 C.ar  361  TRP361      0.0810
     89  CE3       35.4930    4.5100   -1.3770 C.ar  361  TRP361      0.0012
     90  CZ2       34.9290    7.2890   -1.5360 C.ar  361  TRP361      0.0191
     91  CZ3       34.8640    5.1880   -0.3330 C.ar  361  TRP361      0.0001
     92  CH2       34.5870    6.5630   -0.4240 C.ar  361  TRP361      0.0015
     93  N         40.8250   -0.0310   -3.0860 N.3   363  ASN363     -0.1240
     94  CA        41.1800   -0.3100   -1.6880 C.3   363  ASN363      0.1653
     95  C         41.8540   -1.6680   -1.6010 C.2   363  ASN363      0.2266
     96  O         41.3340   -2.6520   -2.1340 O.2   363  ASN363     -0.2867
     97  CB        39.9370   -0.2840   -0.7990 C.3   363  ASN363      0.1155
     98  CG        39.1410    1.0010   -0.9400 C.2   363  ASN363      0.2627
     99  OD1       39.4300    1.9940   -0.2830 O.2   363  ASN363     -0.2716
    100  ND2       38.1280    0.9780   -1.7910 N.am  363  ASN363     -0.0877
    101  N         41.1290   11.6690   -1.6340 N.3   391  PRO391     -0.2116
    102  CA        42.3470   11.3680   -0.8780 C.3   391  PRO391      0.1372
    103  C         43.0360   10.0520   -1.2650 C.2   391  PRO391      0.2244
    104  O         42.3840    9.0970   -1.7000 O.2   391  PRO391     -0.2868
    105  CB        41.8640   11.3000    0.5790 C.3   391  PRO391      0.0268
    106  CG        40.3930   11.0980    0.5180 C.3   391  PRO391      0.0207
    107  CD        39.9090   11.6170   -0.8060 C.3   391  PRO391      0.0892
    108  N         45.0860    7.4340    0.7870 N.3   393  ILE393     -0.1245
    109  CA        45.3290    7.1080    2.1960 C.3   393  ILE393      0.1561
    110  C         46.1960    5.8510    2.2660 C.2   393  ILE393      0.2260
    111  O         45.9290    4.8840    1.5640 O.2   393  ILE393     -0.2867
    112  CB        43.9830    6.8550    2.9390 C.3   393  ILE393      0.0252
    113  CG1       43.0590    8.0850    2.8080 C.3   393  ILE393      0.0019
    114  CG2       44.2340    6.5110    4.4130 C.3   393  ILE393      0.0019
    115  CD1       41.5770    7.8100    3.0760 C.3   393  ILE393      0.0001
    116  N         48.4190    3.5390    5.3480 N.3   395  TYR395     -0.1241
    117  CA        48.8840    3.3410    6.7300 C.3   395  TYR395      0.1605
    118  C         49.0470    1.8740    7.0890 C.2   395  TYR395      0.2264
    119  O         48.3270    1.0260    6.5520 O.2   395  TYR395     -0.2867
    120  CB        47.9840    4.0630    7.7480 C.3   395  TYR395      0.0534
    121  CG        46.5230    3.6660    7.7580 C.ar  395  TYR395     -0.0201
    122  CD1       46.0680    2.6100    8.5490 C.ar  395  TYR395     -0.0009
    123  CD2       45.5850    4.3760    7.0070 C.ar  395  TYR395     -0.0009
    124  CE1       44.7190    2.2550    8.5680 C.ar  395  TYR395      0.0417
    125  CE2       44.2320    4.0330    7.0270 C.ar  395  TYR395      0.0417
    126  CZ        43.8090    2.9740    7.8100 C.ar  395  TYR395      0.1957
    127  OH        42.4740    2.6320    7.8340 O.3   395  TYR395     -0.2866
    128  N         47.0290   -0.6170    4.7600 N.3   418  ALA418     -0.1245
    129  CA        45.7890   -0.2200    4.1130 C.3   418  ALA418      0.1562
    130  C         46.1790    0.8460    3.1010 C.2   418  ALA418      0.2260
    131  O         46.8320    1.8250    3.4400 O.2   418  ALA418     -0.2867
    132  CB        44.8090    0.3520    5.1130 C.3   418  ALA418      0.0290
    133  N         44.1660    3.0510    0.3670 N.3   420  SER420     -0.1217
    134  CA        42.8440    3.4490   -0.1070 C.3   420  SER420      0.1889
    135  C         42.9330    4.6510   -1.0350 C.2   420  SER420      0.2288
    136  O         43.1930    5.7660   -0.5960 O.2   420  SER420     -0.2866
    137  CB        41.9340    3.7510    1.0770 C.3   420  SER420      0.2089
    138  OG        41.4920    2.5380    1.6410 O.3   420  SER420     -0.2183
    139  N         40.9640    6.9370   -3.1800 N.3   422  LEU422     -0.1245
    140  CA        39.5350    7.2360   -3.2350 C.3   422  LEU422      0.1561
    141  C         39.1950    8.1660   -4.3970 C.2   422  LEU422      0.2260
    142  O         38.7990    9.3120   -4.1990 O.2   422  LEU422     -0.2867
    143  CB        39.0570    7.7960   -1.8920 C.3   422  LEU422      0.0270
    144  CG        39.4520    6.9930   -0.6440 C.3   422  LEU422      0.0019
    145  CD1       38.8530    7.6700    0.5560 C.3   422  LEU422      0.0001
    146  CD2       38.9960    5.5520   -0.7130 C.3   422  LEU422      0.0001
    147  N         40.0940   -4.9820   -0.6400 N.3   455  TYR455     -0.1227
    148  CA        39.1290   -4.7290    0.4180 C.3   455  TYR455      0.1736
    149  C         38.0030   -3.8900   -0.1960 C.2   455  TYR455      0.2595
    150  O         38.2730   -2.9620   -0.9450 O.2   455  TYR455     -0.2718
    151  CB        39.8130   -4.0280    1.6070 C.3   455  TYR455      0.0548
    152  CG        38.9050   -3.6710    2.7700 C.ar  455  TYR455     -0.0200
    153  CD1       38.1300   -4.6460    3.4230 C.ar  455  TYR455     -0.0009
    154  CD2       38.8330   -2.3610    3.2300 C.ar  455  TYR455     -0.0009
    155  CE1       37.2930   -4.3030    4.4920 C.ar  455  TYR455      0.0417
    156  CE2       38.0070   -2.0150    4.2820 C.ar  455  TYR455      0.0417
    157  CZ        37.2380   -2.9860    4.9120 C.ar  455  TYR455      0.1957
    158  OH        36.4240   -2.6030    5.9600 O.3   455  TYR455     -0.2866
    159  N         36.7490   -4.2460    0.1010 N.am  456  LEU456     -0.1980
    160  CA        35.5530   -3.5210   -0.3820 C.3   456  LEU456      0.1596
    161  C         35.2310   -3.7480   -1.8650 C.2   456  LEU456      0.2287
    162  O         34.3330   -3.1020   -2.4360 O.2   456  LEU456     -0.2864
    163  CB        35.6270   -2.0220   -0.0830 C.3   456  LEU456      0.0297
    164  CG        35.8210   -1.5610    1.3650 C.3   456  LEU456      0.0022
    165  CD1       36.0100   -0.0650    1.3920 C.3   456  LEU456      0.0001
    166  CD2       34.6620   -1.9930    2.2630 C.3   456  LEU456      0.0001
@<TRIPOS>BOND
     1    79    80    1
     2    82    81    2
     3    81    80    1
     4    80    83    1
     5    65    66    1
     6    85    87   ar
     7    85    84   ar
     8    68    67    2
     9    67    66    1
    10   141   142    2
    11   141   140    1
    12    83    84    1
    13    87    88   ar
    14    66    69    1
    15    84    86   ar
    16   140   139    1
    17   140   143    1
    18    93    94    1
    19    88    86   ar
    20    88    90   ar
    21    86    89   ar
    22    69    70    1
    23   162   161    2
    24    96    95    2
    25   143   144    1
    26   161   160    1
    27   100    98   am
    28   104   103    2
    29    94    95    1
    30    94    97    1
    31   101   102    1
    32   101   107    1
    33    90    92   ar
    34    70    71   ar
    35    70    72   ar
    36    89    91   ar
    37   103   102    1
    38    71    73   ar
    39   135   136    2
    40   135   134    1
    41   150   149    2
    42    98    97    1
    43    98    99    2
    44   102   105    1
    45   107   106    1
    46   146   144    1
    47   144   145    1
    48   147   148    1
    49    72    75   ar
    50    72    74   ar
    51    75    77   ar
    52    92    91   ar
    53   160   163    1
    54   160   159    1
    55    73    74   ar
    56   149   159   am
    57   149   148    1
    58   134   133    1
    59   134   137    1
    60   163   164    1
    61    74    76   ar
    62   148   151    1
    63    77    78   ar
    64   106   105    1
    65   108   109    1
    66   137   138    1
    67    76    78   ar
    68   164   165    1
    69   164   166    1
    70    64    62   ar
    71   111   110    2
    72   151   152    1
    73    59    58    2
    74   109   110    1
    75   109   112    1
    76    61    62    1
    77    61    60    1
    78    62    63   ar
    79    58    57    1
    80   152   154   ar
    81   152   153   ar
    82   113   112    1
    83   113   115    1
    84   112   114    1
    85   130   131    2
    86   130   129    1
    87   154   156   ar
    88   153   155   ar
    89    60    57    1
    90    57    56    1
    91   129   128    1
    92   129   132    1
    93   156   157   ar
    94    20    19    1
    95   155   157   ar
    96    19    18   ar
    97    19    17   ar
    98   157   158    1
    99    18    16   ar
   100    17    15   ar
   101    54    53    1
   102   116   117    1
   103    16    14   ar
   104    52    51    2
   105    15    14   ar
   106    14    13    1
   107    28    26    1
   108    13    10    1
   109     8     6   ar
   110   119   118    2
   111   117   118    1
   112   117   120    1
   113    53    55    1
   114    53    50    1
   115    51    50    1
   116   123   125   ar
   117   123   121   ar
   118   125   126   ar
   119    50    49    1
   120    26    25    1
   121     5     6    1
   122     5     2    1
   123     6     7   ar
   124    37    35   ar
   125   120   121    1
   126   121   122   ar
   127   126   127    1
   128   126   124   ar
   129    10     9    1
   130    10    11    1
   131     9     3   am
   132    41    40    2
   133    31    32    2
   134    31    30    1
   135   122   124   ar
   136    49    40   am
   137     3     2    1
   138     3     4    2
   139    25    27    1
   140    25    22    1
   141    35    36   ar
   142    35    34    1
   143    12    11    2
   144    24    23    2
   145     2     1    1
   146    33    30    1
   147    33    34    1
   148    40    39    1
   149    21    22    1
   150    30    29    1
   151    23    22    1
   152    43    42    1
   153    43    44    1
   154    48    46    1
   155    45    44    1
   156    45    46    2
   157    39    42    1
   158    39    38    1
   159    46    47    1
