@<TRIPOS>MOLECULE
tmp/3dqsA00.pdb
 212 205 0 0 0
SMALL
GASTEIGER

@<TRIPOS>ATOM
      1  N         12.4190    1.0220   29.5120 N.3   103  TRP103     -0.1241
      2  CA        11.2470    1.7310   30.0070 C.3   103  TRP103      0.1605
      3  C         10.5660    0.8110   31.0300 C.2   103  TRP103      0.2264
      4  O         10.2670    1.2100   32.1580 O.2   103  TRP103     -0.2867
      5  CB        10.3070    2.0280   28.8400 C.3   103  TRP103      0.0550
      6  CG         9.0260    2.7410   29.2050 C.ar  103  TRP103      0.0003
      7  CD1        8.6740    3.2640   30.4280 C.ar  103  TRP103      0.0946
      8  CD2        7.9340    2.9920   28.3340 C.ar  103  TRP103      0.0152
      9  NE1        7.4270    3.8170   30.3560 N.ar  103  TRP103     -0.2442
     10  CE2        6.9450    3.6630   29.0820 C.ar  103  TRP103      0.0810
     11  CE3        7.6880    2.7110   26.9810 C.ar  103  TRP103      0.0012
     12  CZ2        5.7270    4.0580   28.5250 C.ar  103  TRP103      0.0191
     13  CZ3        6.4810    3.1050   26.4280 C.ar  103  TRP103      0.0001
     14  CH2        5.5100    3.7770   27.2080 C.ar  103  TRP103      0.0015
     15  N         12.2940    0.9080   34.3790 N.3   106  ALA106     -0.1245
     16  CA        12.3570    2.1820   35.1050 C.3   106  ALA106      0.1562
     17  C         11.5150    2.2170   36.3910 C.2   106  ALA106      0.2260
     18  O         10.3060    2.3920   36.3480 O.2   106  ALA106     -0.2867
     19  CB        11.9390    3.3190   34.1550 C.3   106  ALA106      0.0290
     20  N         10.9410    4.4580   38.6000 N.3   108  ARG108     -0.1231
     21  CA        10.2450    5.6900   38.8960 C.3   108  ARG108      0.1694
     22  C          9.1120    6.0940   37.9620 C.2   108  ARG108      0.2592
     23  O          8.4780    7.1280   38.1850 O.2   108  ARG108     -0.2718
     24  CB        11.2720    6.8320   39.0100 C.3   108  ARG108      0.0321
     25  CG        12.1500    6.7100   40.2650 C.3   108  ARG108      0.0489
     26  CD        13.1790    7.8070   40.4000 C.3   108  ARG108      0.2205
     27  NE        13.8500    7.7570   41.7050 N.pl3 108  ARG108     -0.0865
     28  CZ        14.8720    8.5440   42.0420 C.cat 108  ARG108      0.5346
     29  NH1       15.3250    9.4440   41.1680 N.pl3 108  ARG108      0.1354
     30  NH2       15.4640    8.4160   43.2320 N.pl3 108  ARG108      0.1354
     31  N          8.8360    5.2760   36.9480 N.am  109  CYS109     -0.1956
     32  CA         7.7830    5.5810   35.9890 C.3   109  CYS109      0.1843
     33  C          6.4520    4.8790   36.3140 C.2   109  CYS109      0.2625
     34  O          6.3570    3.6450   36.3270 O.2   109  CYS109     -0.2714
     35  CB         8.2190    5.1790   34.5700 C.3   109  CYS109      0.0997
     36  SG         6.9300    5.5090   33.3330 S.3   109  CYS109     -0.0797
     37  N          5.4200    5.6780   36.5220 N.am  110  VAL110     -0.1963
     38  CA         4.1000    5.1540   36.8310 C.3   110  VAL110      0.1727
     39  C          3.3360    4.8130   35.5460 C.2   110  VAL110      0.2616
     40  O          2.2440    4.2420   35.6070 O.2   110  VAL110     -0.2715
     41  CB         3.2810    6.2150   37.6340 C.3   110  VAL110      0.0290
     42  CG1        2.8430    7.3620   36.6960 C.3   110  VAL110      0.0023
     43  CG2        2.0910    5.5620   38.3120 C.3   110  VAL110      0.0023
     44  N          3.8910    5.1740   34.3880 N.am  111  GLY111     -0.1955
     45  CA         3.1870    4.9180   33.1390 C.3   111  GLY111      0.1869
     46  C          3.5670    3.6320   32.4180 C.2   111  GLY111      0.2309
     47  O          3.2440    3.4480   31.2370 O.2   111  GLY111     -0.2863
     48  N          1.9750    1.0710   29.6000 N.3   114  GLN114     -0.1245
     49  CA         2.1970    1.3330   28.1680 C.3   114  GLN114      0.1566
     50  C          3.5330    0.8440   27.5820 C.2   114  GLN114      0.2260
     51  O          3.7510    0.9980   26.3830 O.2   114  GLN114     -0.2867
     52  CB         2.1330    2.8550   27.8950 C.3   114  GLN114      0.0367
     53  CG         0.8030    3.5070   28.1520 C.3   114  GLN114      0.0905
     54  CD        -0.2240    3.1840   27.0870 C.2   114  GLN114      0.2608
     55  OE1       -1.4020    3.0320   27.3820 O.2   114  GLN114     -0.2717
     56  NE2        0.2140    3.0900   25.8490 N.am  114  GLN114     -0.0878
     57  N          5.8010    1.4390   22.1550 N.3   118  LEU118     -0.1245
     58  CA         6.7980    2.4890   22.0440 C.3   118  LEU118      0.1561
     59  C          7.3290    2.4980   20.6210 C.2   118  LEU118      0.2260
     60  O          7.7830    1.4700   20.1180 O.2   118  LEU118     -0.2867
     61  CB         7.9520    2.2020   23.0040 C.3   118  LEU118      0.0270
     62  CG         9.1500    3.1510   23.0310 C.3   118  LEU118      0.0019
     63  CD1        8.7030    4.4950   23.6070 C.3   118  LEU118      0.0001
     64  CD2       10.2760    2.5510   23.8840 C.3   118  LEU118      0.0001
     65  N          3.8770    7.4920   22.3920 N.3   151  SER151     -0.1217
     66  CA         5.1580    7.2870   23.0430 C.3   151  SER151      0.1889
     67  C          6.2450    7.0220   22.0170 C.2   151  SER151      0.2288
     68  O          6.0500    6.2430   21.1010 O.2   151  SER151     -0.2866
     69  CB         5.0810    6.1040   23.9970 C.3   151  SER151      0.2089
     70  OG         4.1810    6.4050   25.0330 O.3   151  SER151     -0.2183
     71  N         10.8780    7.1580   21.2240 N.3   153  ILE153     -0.1245
     72  CA        12.2590    7.3990   21.6130 C.3   153  ILE153      0.1561
     73  C         13.0650    7.4250   20.3180 C.2   153  ILE153      0.2260
     74  O         12.7590    6.6910   19.3860 O.2   153  ILE153     -0.2867
     75  CB        12.8180    6.3010   22.5520 C.3   153  ILE153      0.0252
     76  CG1       14.2820    6.6130   22.8770 C.3   153  ILE153      0.0019
     77  CG2       12.6910    4.9080   21.8960 C.3   153  ILE153      0.0019
     78  CD1       14.8480    5.7880   24.0160 C.3   153  ILE153      0.0001
     79  N          5.9330   15.7530   27.1380 N.3   259  PRO259     -0.2116
     80  CA         6.9960   15.5950   28.1260 C.3   259  PRO259      0.1372
     81  C          8.0740   14.7280   27.4520 C.2   259  PRO259      0.2244
     82  O          7.8740   13.5250   27.2350 O.2   259  PRO259     -0.2868
     83  CB         6.2790   14.8930   29.2790 C.3   259  PRO259      0.0268
     84  CG         5.3000   14.0270   28.5800 C.3   259  PRO259      0.0207
     85  CD         4.7890   14.8700   27.4350 C.3   259  PRO259      0.0892
     86  N         12.0200   13.7210   27.8160 N.3   261  VAL261     -0.1245
     87  CA        13.2800   13.7190   28.5400 C.3   261  VAL261      0.1561
     88  C         14.4430   13.5320   27.5830 C.2   261  VAL261      0.2260
     89  O         14.4980   12.5610   26.8260 O.2   261  VAL261     -0.2867
     90  CB        13.2710   12.6050   29.6000 C.3   261  VAL261      0.0252
     91  CG1       14.6050   12.5520   30.3320 C.3   261  VAL261      0.0019
     92  CG2       12.1360   12.8700   30.5860 C.3   261  VAL261      0.0019
     93  N         18.9720   11.8630   29.5910 N.3   264  MET264     -0.1245
     94  CA        19.2780   10.5850   30.2120 C.3   264  MET264      0.1570
     95  C         20.0350    9.6370   29.2990 C.2   264  MET264      0.2261
     96  O         19.9390    9.7060   28.0810 O.2   264  MET264     -0.2867
     97  CB        18.0160    9.9070   30.7200 C.3   264  MET264      0.0387
     98  CG        17.4550   10.5990   31.9410 C.3   264  MET264      0.0595
     99  SD        16.0960    9.7350   32.7460 S.3   264  MET264     -0.1393
    100  CE        17.0000    8.6960   33.8570 C.3   264  MET264      0.0692
    101  N         13.3320   10.4570   24.8860 N.3   278  PHE278     -0.1227
    102  CA        12.1010    9.6660   24.8920 C.3   278  PHE278      0.1736
    103  C         10.9370   10.5140   25.4130 C.2   278  PHE278      0.2596
    104  O         11.1370   11.4410   26.2030 O.2   278  PHE278     -0.2718
    105  CB        12.3010    8.4040   25.7430 C.3   278  PHE278      0.0547
    106  CG        12.7640    8.6740   27.1490 C.ar  278  PHE278     -0.0202
    107  CD1       11.8520    9.0090   28.1420 C.ar  278  PHE278     -0.0042
    108  CD2       14.1130    8.6110   27.4720 C.ar  278  PHE278     -0.0042
    109  CE1       12.2790    9.2740   29.4330 C.ar  278  PHE278     -0.0003
    110  CE2       14.5550    8.8750   28.7610 C.ar  278  PHE278     -0.0003
    111  CZ        13.6390    9.2090   29.7450 C.ar  278  PHE278     -0.0000
    112  N          9.7270   10.2200   24.9550 N.am  279  SER279     -0.1938
    113  CA         8.5690   10.9900   25.3900 C.3   279  SER279      0.2055
    114  C          7.3000   10.1570   25.4510 C.2   279  SER279      0.2644
    115  O          7.1970    9.0950   24.8090 O.2   279  SER279     -0.2714
    116  CB         8.3380   12.1640   24.4470 C.3   279  SER279      0.2130
    117  OG         8.0420   11.7000   23.1500 O.3   279  SER279     -0.2179
    118  N          6.3420   10.6390   26.2420 N.am  280  GLY280     -0.1939
    119  CA         5.0620    9.9700   26.3680 C.3   280  GLY280      0.2014
    120  C          4.0090   11.0560   26.4510 C.2   280  GLY280      0.2639
    121  O          3.9250   11.8920   25.5680 O.2   280  GLY280     -0.2714
    122  N          3.1880   11.0180   27.4950 N.am  281  TRP281     -0.1959
    123  CA         2.1900   12.0540   27.7300 C.3   281  TRP281      0.1771
    124  C          2.1800   12.2950   29.2320 C.2   281  TRP281      0.2620
    125  O          2.6000   11.4400   30.0090 O.2   281  TRP281     -0.2715
    126  CB         0.8150   11.6610   27.1900 C.3   281  TRP281      0.0590
    127  CG         0.2500   10.3980   27.6890 C.ar  281  TRP281      0.0006
    128  CD1       -0.3310   10.1740   28.9090 C.ar  281  TRP281      0.0946
    129  CD2        0.1720    9.1670   26.9700 C.ar  281  TRP281      0.0152
    130  NE1       -0.7720    8.8790   28.9850 N.ar  281  TRP281     -0.2442
    131  CE2       -0.4770    8.2340   27.8100 C.ar  281  TRP281      0.0810
    132  CE3        0.5890    8.7580   25.6950 C.ar  281  TRP281      0.0012
    133  CZ2       -0.7210    6.9170   27.4190 C.ar  281  TRP281      0.0191
    134  CZ3        0.3490    7.4360   25.3000 C.ar  281  TRP281      0.0001
    135  CH2       -0.3040    6.5340   26.1660 C.ar  281  TRP281      0.0015
    136  N          1.7360   13.4750   29.6400 N.am  282  TYR282     -0.1960
    137  CA         1.7390   13.8440   31.0450 C.3   282  TYR282      0.1771
    138  C          0.7270   13.1980   31.9610 C.2   282  TYR282      0.2619
    139  O         -0.3490   12.7630   31.5320 O.2   282  TYR282     -0.2715
    140  CB         1.5340   15.3570   31.1810 C.3   282  TYR282      0.0574
    141  CG         2.7790   16.1970   31.0630 C.ar  282  TYR282     -0.0198
    142  CD1        3.7120   16.2330   32.0970 C.ar  282  TYR282     -0.0009
    143  CD2        3.0000   17.0090   29.9420 C.ar  282  TYR282     -0.0009
    144  CE1        4.8160   17.0540   32.0310 C.ar  282  TYR282      0.0417
    145  CE2        4.1170   17.8430   29.8650 C.ar  282  TYR282      0.0417
    146  CZ         5.0150   17.8590   30.9150 C.ar  282  TYR282      0.1957
    147  OH         6.1090   18.6780   30.8910 O.3   282  TYR282     -0.2866
    148  N          1.1030   13.1350   33.2340 N.am  283  MET283     -0.1977
    149  CA         0.1730   12.7150   34.2760 C.3   283  MET283      0.1605
    150  C         -0.0510   14.1180   34.8300 C.2   283  MET283      0.2287
    151  O          0.9180   14.8490   35.1060 O.2   283  MET283     -0.2864
    152  CB         0.8040   11.8430   35.3510 C.3   283  MET283      0.0413
    153  CG        -0.1360   11.6940   36.5460 C.3   283  MET283      0.0598
    154  SD         0.3360   10.3640   37.5990 S.3   283  MET283     -0.1393
    155  CE         1.4600   11.2410   38.6790 C.3   283  MET283      0.0692
    156  N          2.1100   16.2770   37.4220 N.3   286  GLU286     -0.1245
    157  CA         3.4460   16.7610   37.0800 C.3   286  GLU286      0.1567
    158  C          3.3590   18.2630   36.7770 C.2   286  GLU286      0.2260
    159  O          4.2300   19.0490   37.1770 O.2   286  GLU286     -0.2867
    160  CB         3.9890   16.0250   35.8480 C.3   286  GLU286      0.0388
    161  CG         4.3350   14.5650   36.0730 C.3   286  GLU286      0.1160
    162  CD         4.7270   13.8900   34.7730 C.2   286  GLU286      0.3649
    163  OE1        3.8230   13.4010   34.0560 O.co2 286  GLU286     -0.2457
    164  OE2        5.9370   13.8770   34.4570 O.co2 286  GLU286     -0.2457
    165  N          3.5680   19.7920   40.7800 N.3   290  ARG290     -0.1245
    166  CA         4.9970   20.0710   40.8550 C.3   290  ARG290      0.1563
    167  C          5.4280   21.3410   40.1210 C.2   290  ARG290      0.2260
    168  O          5.8550   22.3000   40.7580 O.2   290  ARG290     -0.2867
    169  CB         5.8060   18.8650   40.3640 C.3   290  ARG290      0.0307
    170  CG         5.5470   17.5510   41.1530 C.3   290  ARG290      0.0489
    171  CD         5.7190   17.7300   42.6790 C.3   290  ARG290      0.2205
    172  NE         7.0220   18.2980   43.0330 N.pl3 290  ARG290     -0.0865
    173  CZ         8.1790   17.6560   42.9110 C.cat 290  ARG290      0.5346
    174  NH1        8.1980   16.4100   42.4590 N.pl3 290  ARG290      0.1354
    175  NH2        9.3210   18.2670   43.1990 N.pl3 290  ARG290      0.1354
    176  N         -3.3300   12.1180   31.5750 N.3   343  VAL343     -0.1245
    177  CA        -3.9530   11.1660   32.4850 C.3   343  VAL343      0.1561
    178  C         -3.8880   11.7020   33.9220 C.2   343  VAL343      0.2260
    179  O         -2.8330   12.1510   34.3820 O.2   343  VAL343     -0.2867
    180  CB        -3.2780    9.7460   32.3770 C.3   343  VAL343      0.0252
    181  CG1       -1.8140    9.8060   32.8140 C.3   343  VAL343      0.0019
    182  CG2       -4.0690    8.7200   33.1960 C.3   343  VAL343      0.0019
    183  N         -4.0040    6.9650   36.3920 N.3   348  ALA348     -0.1245
    184  CA        -2.6240    6.5260   36.2130 C.3   348  ALA348      0.1562
    185  C         -2.1970    5.4830   37.2470 C.2   348  ALA348      0.2260
    186  O         -1.5610    4.4840   36.9090 O.2   348  ALA348     -0.2867
    187  CB        -1.6760    7.7270   36.2750 C.3   348  ALA348      0.0290
    188  N          8.3200    7.8670   44.4170 N.3   372  TRP372     -0.1241
    189  CA         8.0980    8.4810   43.1190 C.3   372  TRP372      0.1605
    190  C          6.8000    8.0410   42.4510 C.2   372  TRP372      0.2264
    191  O          6.2410    8.7780   41.6520 O.2   372  TRP372     -0.2867
    192  CB         9.2710    8.1920   42.1760 C.3   372  TRP372      0.0550
    193  CG        10.4370    9.1190   42.3640 C.ar  372  TRP372      0.0003
    194  CD1       11.2330    9.2350   43.4660 C.ar  372  TRP372      0.0946
    195  CD2       10.9350   10.0650   41.4090 C.ar  372  TRP372      0.0152
    196  NE1       12.2000   10.1980   43.2550 N.ar  372  TRP372     -0.2442
    197  CE2       12.0370   10.7210   42.0010 C.ar  372  TRP372      0.0810
    198  CE3       10.5500   10.4250   40.1100 C.ar  372  TRP372      0.0012
    199  CZ2       12.7610   11.7160   41.3400 C.ar  372  TRP372      0.0191
    200  CZ3       11.2720   11.4270   39.4480 C.ar  372  TRP372      0.0001
    201  CH2       12.3620   12.0550   40.0670 C.ar  372  TRP372      0.0015
    202  N         17.5630    3.2880   31.9300 N.3   398  PHE398     -0.1241
    203  CA        17.7640    4.7100   31.6750 C.3   398  PHE398      0.1605
    204  C         18.4910    5.1530   32.9430 C.2   398  PHE398      0.2264
    205  O         18.0730    4.8170   34.0510 O.2   398  PHE398     -0.2867
    206  CB        16.4330    5.4510   31.5500 C.3   398  PHE398      0.0534
    207  CG        15.7180    5.1830   30.2580 C.ar  398  PHE398     -0.0203
    208  CD1       14.5380    4.4530   30.2370 C.ar  398  PHE398     -0.0042
    209  CD2       16.2140    5.6940   29.0670 C.ar  398  PHE398     -0.0042
    210  CE1       13.8500    4.2400   29.0350 C.ar  398  PHE398     -0.0003
    211  CE2       15.5420    5.4910   27.8660 C.ar  398  PHE398     -0.0003
    212  CZ        14.3520    4.7600   27.8530 C.ar  398  PHE398     -0.0000
@<TRIPOS>BOND
     1    74    73    2
     2    60    59    2
     3    73    72    1
     4    59    58    1
     5    68    67    2
     6    71    72    1
     7    72    75    1
     8    77    75    1
     9    67    66    1
    10    58    57    1
    11    58    61    1
    12    65    66    1
    13    75    76    1
    14    76    78    1
    15    61    62    1
    16    62    63    1
    17    62    64    1
    18    66    69    1
    19   117   116    1
    20    69    70    1
    21   116   113    1
    22   115   114    2
    23   101   102    1
    24   102   103    1
    25   102   105    1
    26   112   113    1
    27   112   103   am
    28   134   132   ar
    29   134   135   ar
    30   113   114    1
    31   103   104    2
    32   114   118   am
    33   121   120    2
    34   132   129   ar
    35   105   106    1
    36    56    54   am
    37   135   133   ar
    38   118   119    1
    39   119   120    1
    40    51    50    2
    41    13    11   ar
    42    13    14   ar
    43   120   122   am
    44    89    88    2
    45   129   127   ar
    46   129   131   ar
    47    11     8   ar
    48    54    55    2
    49    54    53    1
    50    79    85    1
    51    79    80    1
    52   106   108   ar
    53   106   107   ar
    54   126   127    1
    55   126   123    1
    56    14    12   ar
    57    82    81    2
    58   133   131   ar
    59    85    84    1
    60    81    80    1
    61   108   110   ar
    62   122   123    1
    63    50    49    1
    64    88    87    1
    65   127   128   ar
    66   123   124    1
    67   131   130   ar
    68    86    87    1
    69   212   211   ar
    70   212   210   ar
    71   211   209   ar
    72    52    53    1
    73    52    49    1
    74    96    95    2
    75    80    83    1
    76   107   109   ar
    77    49    48    1
    78     8    10   ar
    79     8     6   ar
    80    12    10   ar
    81    87    90    1
    82    84    83    1
    83   110   111   ar
    84     5     6    1
    85     5     2    1
    86   128   130   ar
    87   210   208   ar
    88   209   207   ar
    89    10     9   ar
    90     6     7   ar
    91   124   136   am
    92   124   125    2
    93    95    94    1
    94   109   111   ar
    95     1     2    1
    96    93    94    1
    97    90    91    1
    98    90    92    1
    99   136   137    1
   100   145   143   ar
   101   145   146   ar
   102   143   141   ar
   103     2     3    1
   104    94    97    1
   105   208   207   ar
   106   207   206    1
   107     9     7   ar
   108    97    98    1
   109   147   146    1
   110   146   144   ar
   111     3     4    2
   112   137   140    1
   113   137   138    1
   114   141   140    1
   115   141   142   ar
   116    47    46    2
   117   139   138    2
   118   206   203    1
   119   176   177    1
   120   203   202    1
   121   203   204    1
   122    98    99    1
   123   138   148   am
   124   144   142   ar
   125   180   177    1
   126   180   181    1
   127   180   182    1
   128    46    45    1
   129   177   178    1
   130    99   100    1
   131   204   205    2
   132    45    44    1
   133   148   149    1
   134    36    35    1
   135   178   179    2
   136   163   162   ar
   137    19    16    1
   138   149   150    1
   139   149   152    1
   140    15    16    1
   141    44    39   am
   142   164   162   ar
   143    35    32    1
   144   162   161    1
   145   150   151    2
   146    16    17    1
   147   152   153    1
   148    39    40    2
   149    39    38    1
   150   160   161    1
   151   160   157    1
   152    32    33    1
   153    32    31    1
   154   184   187    1
   155   184   183    1
   156   184   185    1
   157    33    34    2
   158    33    37   am
   159    18    17    2
   160    37    38    1
   161   153   154    1
   162    42    41    1
   163   158   157    1
   164   158   159    2
   165    38    41    1
   166   186   185    2
   167    31    22   am
   168   157   156    1
   169   154   155    1
   170    41    43    1
   171    22    23    2
   172    22    21    1
   173    20    21    1
   174    21    24    1
   175    24    25    1
   176   200   201   ar
   177   200   198   ar
   178   201   199   ar
   179   198   195   ar
   180   167   168    2
   181   167   166    1
   182    25    26    1
   183   169   166    1
   184   169   170    1
   185    26    27    1
   186   165   166    1
   187   170   171    1
   188    29    28    1
   189   199   197   ar
   190   195   197   ar
   191   195   193   ar
   192   191   190    2
   193    27    28    2
   194   197   196   ar
   195    28    30    1
   196   192   193    1
   197   192   189    1
   198   193   194   ar
   199   190   189    1
   200   174   173    1
   201   171   172    1
   202   173   172    2
   203   173   175    1
   204   189   188    1
   205   196   194   ar
