@<TRIPOS>MOLECULE
tmp/3dqsA02.pdb
 142 140 0 0 0
SMALL
GASTEIGER

@<TRIPOS>ATOM
      1  N         17.2350   11.5100   45.6390 N.3    40  VAL40      -0.1231
      2  CA        16.9560   11.6920   44.2220 C.3    40  VAL40       0.1692
      3  C         18.0610   11.1270   43.3370 C.2    40  VAL40       0.2591
      4  O         17.7850   10.4800   42.3320 O.2    40  VAL40      -0.2718
      5  CB        16.7580   13.1900   43.8850 C.3    40  VAL40       0.0266
      6  CG1       16.5670   13.3760   42.3740 C.3    40  VAL40       0.0020
      7  CG2       15.5410   13.7360   44.6420 C.3    40  VAL40       0.0020
      8  N         19.3130   11.3640   43.7180 N.am   41  LEU41      -0.1980
      9  CA        20.4510   10.8830   42.9320 C.3    41  LEU41       0.1596
     10  C         21.2420    9.7750   43.6160 C.2    41  LEU41       0.2287
     11  O         21.5460    9.8570   44.8020 O.2    41  LEU41      -0.2864
     12  CB        21.3910   12.0450   42.6160 C.3    41  LEU41       0.0297
     13  CG        20.7940   13.1420   41.7360 C.3    41  LEU41       0.0022
     14  CD1       21.6650   14.4000   41.8090 C.3    41  LEU41       0.0001
     15  CD2       20.6720   12.6400   40.3070 C.3    41  LEU41       0.0001
     16  N          8.8360    5.2760   36.9480 N.3   109  CYS109     -0.1235
     17  CA         7.7830    5.5810   35.9890 C.3   109  CYS109      0.1677
     18  C          6.4520    4.8790   36.3140 C.2   109  CYS109      0.2270
     19  O          6.3570    3.6450   36.3270 O.2   109  CYS109     -0.2867
     20  CB         8.2190    5.1790   34.5700 C.3   109  CYS109      0.0956
     21  SG         6.9300    5.5090   33.3330 S.3   109  CYS109     -0.0801
     22  N         14.9950   18.4820   28.7110 N.3   172  GLN172     -0.1245
     23  CA        13.7890   18.0610   28.0010 C.3   172  GLN172      0.1566
     24  C         13.7970   18.7560   26.6280 C.2   172  GLN172      0.2260
     25  O         14.3910   19.8310   26.4740 O.2   172  GLN172     -0.2867
     26  CB        12.5140   18.4680   28.7680 C.3   172  GLN172      0.0367
     27  CG        12.1920   17.6620   30.0330 C.3   172  GLN172      0.0905
     28  CD        10.8330   18.0450   30.6460 C.2   172  GLN172      0.2608
     29  OE1        9.8520   18.2380   29.9330 O.2   172  GLN172     -0.2717
     30  NE2       10.7820   18.1370   31.9660 N.am  172  GLN172     -0.0878
     31  N          5.9330   15.7530   27.1380 N.3   259  PRO259     -0.2116
     32  CA         6.9960   15.5950   28.1260 C.3   259  PRO259      0.1372
     33  C          8.0740   14.7280   27.4520 C.2   259  PRO259      0.2244
     34  O          7.8740   13.5250   27.2350 O.2   259  PRO259     -0.2868
     35  CB         6.2790   14.8930   29.2790 C.3   259  PRO259      0.0268
     36  CG         5.3000   14.0270   28.5800 C.3   259  PRO259      0.0207
     37  CD         4.7890   14.8700   27.4350 C.3   259  PRO259      0.0892
     38  N         12.0200   13.7210   27.8160 N.3   261  VAL261     -0.1245
     39  CA        13.2800   13.7190   28.5400 C.3   261  VAL261      0.1561
     40  C         14.4430   13.5320   27.5830 C.2   261  VAL261      0.2260
     41  O         14.4980   12.5610   26.8260 O.2   261  VAL261     -0.2867
     42  CB        13.2710   12.6050   29.6000 C.3   261  VAL261      0.0252
     43  CG1       14.6050   12.5520   30.3320 C.3   261  VAL261      0.0019
     44  CG2       12.1360   12.8700   30.5860 C.3   261  VAL261      0.0019
     45  N         13.3320   10.4570   24.8860 N.3   278  PHE278     -0.1227
     46  CA        12.1010    9.6660   24.8920 C.3   278  PHE278      0.1736
     47  C         10.9370   10.5140   25.4130 C.2   278  PHE278      0.2596
     48  O         11.1370   11.4410   26.2030 O.2   278  PHE278     -0.2718
     49  CB        12.3010    8.4040   25.7430 C.3   278  PHE278      0.0547
     50  CG        12.7640    8.6740   27.1490 C.ar  278  PHE278     -0.0202
     51  CD1       11.8520    9.0090   28.1420 C.ar  278  PHE278     -0.0042
     52  CD2       14.1130    8.6110   27.4720 C.ar  278  PHE278     -0.0042
     53  CE1       12.2790    9.2740   29.4330 C.ar  278  PHE278     -0.0003
     54  CE2       14.5550    8.8750   28.7610 C.ar  278  PHE278     -0.0003
     55  CZ        13.6390    9.2090   29.7450 C.ar  278  PHE278     -0.0000
     56  N          9.7270   10.2200   24.9550 N.am  279  SER279     -0.1938
     57  CA         8.5690   10.9900   25.3900 C.3   279  SER279      0.2055
     58  C          7.3000   10.1570   25.4510 C.2   279  SER279      0.2644
     59  O          7.1970    9.0950   24.8090 O.2   279  SER279     -0.2714
     60  CB         8.3380   12.1640   24.4470 C.3   279  SER279      0.2130
     61  OG         8.0420   11.7000   23.1500 O.3   279  SER279     -0.2179
     62  N          6.3420   10.6390   26.2420 N.am  280  GLY280     -0.1939
     63  CA         5.0620    9.9700   26.3680 C.3   280  GLY280      0.2014
     64  C          4.0090   11.0560   26.4510 C.2   280  GLY280      0.2639
     65  O          3.9250   11.8920   25.5680 O.2   280  GLY280     -0.2714
     66  N          3.1880   11.0180   27.4950 N.am  281  TRP281     -0.1959
     67  CA         2.1900   12.0540   27.7300 C.3   281  TRP281      0.1771
     68  C          2.1800   12.2950   29.2320 C.2   281  TRP281      0.2620
     69  O          2.6000   11.4400   30.0090 O.2   281  TRP281     -0.2715
     70  CB         0.8150   11.6610   27.1900 C.3   281  TRP281      0.0590
     71  CG         0.2500   10.3980   27.6890 C.ar  281  TRP281      0.0006
     72  CD1       -0.3310   10.1740   28.9090 C.ar  281  TRP281      0.0946
     73  CD2        0.1720    9.1670   26.9700 C.ar  281  TRP281      0.0152
     74  NE1       -0.7720    8.8790   28.9850 N.ar  281  TRP281     -0.2442
     75  CE2       -0.4770    8.2340   27.8100 C.ar  281  TRP281      0.0810
     76  CE3        0.5890    8.7580   25.6950 C.ar  281  TRP281      0.0012
     77  CZ2       -0.7210    6.9170   27.4190 C.ar  281  TRP281      0.0191
     78  CZ3        0.3490    7.4360   25.3000 C.ar  281  TRP281      0.0001
     79  CH2       -0.3040    6.5340   26.1660 C.ar  281  TRP281      0.0015
     80  N          1.7360   13.4750   29.6400 N.am  282  TYR282     -0.1960
     81  CA         1.7390   13.8440   31.0450 C.3   282  TYR282      0.1771
     82  C          0.7270   13.1980   31.9610 C.2   282  TYR282      0.2619
     83  O         -0.3490   12.7630   31.5320 O.2   282  TYR282     -0.2715
     84  CB         1.5340   15.3570   31.1810 C.3   282  TYR282      0.0574
     85  CG         2.7790   16.1970   31.0630 C.ar  282  TYR282     -0.0198
     86  CD1        3.7120   16.2330   32.0970 C.ar  282  TYR282     -0.0009
     87  CD2        3.0000   17.0090   29.9420 C.ar  282  TYR282     -0.0009
     88  CE1        4.8160   17.0540   32.0310 C.ar  282  TYR282      0.0417
     89  CE2        4.1170   17.8430   29.8650 C.ar  282  TYR282      0.0417
     90  CZ         5.0150   17.8590   30.9150 C.ar  282  TYR282      0.1957
     91  OH         6.1090   18.6780   30.8910 O.3   282  TYR282     -0.2866
     92  N          1.1030   13.1350   33.2340 N.am  283  MET283     -0.1977
     93  CA         0.1730   12.7150   34.2760 C.3   283  MET283      0.1605
     94  C         -0.0510   14.1180   34.8300 C.2   283  MET283      0.2287
     95  O          0.9180   14.8490   35.1060 O.2   283  MET283     -0.2864
     96  CB         0.8040   11.8430   35.3510 C.3   283  MET283      0.0413
     97  CG        -0.1360   11.6940   36.5460 C.3   283  MET283      0.0598
     98  SD         0.3360   10.3640   37.5990 S.3   283  MET283     -0.1393
     99  CE         1.4600   11.2410   38.6790 C.3   283  MET283      0.0692
    100  N          2.1100   16.2770   37.4220 N.3   286  GLU286     -0.1245
    101  CA         3.4460   16.7610   37.0800 C.3   286  GLU286      0.1567
    102  C          3.3590   18.2630   36.7770 C.2   286  GLU286      0.2260
    103  O          4.2300   19.0490   37.1770 O.2   286  GLU286     -0.2867
    104  CB         3.9890   16.0250   35.8480 C.3   286  GLU286      0.0388
    105  CG         4.3350   14.5650   36.0730 C.3   286  GLU286      0.1160
    106  CD         4.7270   13.8900   34.7730 C.2   286  GLU286      0.3649
    107  OE1        3.8230   13.4010   34.0560 O.co2 286  GLU286     -0.2457
    108  OE2        5.9370   13.8770   34.4570 O.co2 286  GLU286     -0.2457
    109  N          5.2810   21.3560   38.8000 N.3   291  ASN291     -0.1240
    110  CA         5.7070   22.4980   37.9930 C.3   291  ASN291      0.1653
    111  C          5.0820   23.8340   38.3670 C.2   291  ASN291      0.2266
    112  O          5.7670   24.8570   38.3880 O.2   291  ASN291     -0.2867
    113  CB         5.4370   22.2260   36.5090 C.3   291  ASN291      0.1155
    114  CG         6.1410   20.9830   36.0100 C.2   291  ASN291      0.2627
    115  OD1        7.0380   20.4590   36.6700 O.2   291  ASN291     -0.2716
    116  ND2        5.7420   20.5060   34.8330 N.am  291  ASN291     -0.0877
    117  N          8.3200    7.8670   44.4170 N.3   372  TRP372     -0.1241
    118  CA         8.0980    8.4810   43.1190 C.3   372  TRP372      0.1605
    119  C          6.8000    8.0410   42.4510 C.2   372  TRP372      0.2264
    120  O          6.2410    8.7780   41.6520 O.2   372  TRP372     -0.2867
    121  CB         9.2710    8.1920   42.1760 C.3   372  TRP372      0.0550
    122  CG        10.4370    9.1190   42.3640 C.ar  372  TRP372      0.0003
    123  CD1       11.2330    9.2350   43.4660 C.ar  372  TRP372      0.0946
    124  CD2       10.9350   10.0650   41.4090 C.ar  372  TRP372      0.0152
    125  NE1       12.2000   10.1980   43.2550 N.ar  372  TRP372     -0.2442
    126  CE2       12.0370   10.7210   42.0010 C.ar  372  TRP372      0.0810
    127  CE3       10.5500   10.4250   40.1100 C.ar  372  TRP372      0.0012
    128  CZ2       12.7610   11.7160   41.3400 C.ar  372  TRP372      0.0191
    129  CZ3       11.2720   11.4270   39.4480 C.ar  372  TRP372      0.0001
    130  CH2       12.3620   12.0550   40.0670 C.ar  372  TRP372      0.0015
    131  N         20.9190    8.4670   34.9120 N.3   400  TYR400     -0.1241
    132  CA        21.2230    9.8880   34.8450 C.3   400  TYR400      0.1605
    133  C         22.6840    9.9650   34.4240 C.2   400  TYR400      0.2264
    134  O         23.4360    9.0210   34.6240 O.2   400  TYR400     -0.2867
    135  CB        21.0660   10.5580   36.2090 C.3   400  TYR400      0.0534
    136  CG        19.6710   10.5240   36.7800 C.ar  400  TYR400     -0.0201
    137  CD1       18.5990   11.1100   36.1080 C.ar  400  TYR400     -0.0009
    138  CD2       19.4310    9.9280   38.0160 C.ar  400  TYR400     -0.0009
    139  CE1       17.3120   11.1000   36.6630 C.ar  400  TYR400      0.0417
    140  CE2       18.1670    9.9140   38.5740 C.ar  400  TYR400      0.0417
    141  CZ        17.1140   10.4970   37.8960 C.ar  400  TYR400      0.1957
    142  OH        15.8620   10.4530   38.4670 O.3   400  TYR400     -0.2866
@<TRIPOS>BOND
     1    61    60    1
     2    60    57    1
     3    59    58    2
     4    45    46    1
     5    46    47    1
     6    46    49    1
     7    56    57    1
     8    56    47   am
     9    78    76   ar
    10    78    79   ar
    11    57    58    1
    12    47    48    2
    13    58    62   am
    14    65    64    2
    15    76    73   ar
    16    49    50    1
    17    79    77   ar
    18    62    63    1
    19    63    64    1
    20    64    66   am
    21    25    24    2
    22    24    23    1
    23    41    40    2
    24    73    71   ar
    25    73    75   ar
    26    31    37    1
    27    31    32    1
    28    50    52   ar
    29    50    51   ar
    30    70    71    1
    31    70    67    1
    32    34    33    2
    33    77    75   ar
    34    37    36    1
    35    33    32    1
    36    52    54   ar
    37    66    67    1
    38    40    39    1
    39    71    72   ar
    40    67    68    1
    41    75    74   ar
    42    38    39    1
    43    23    22    1
    44    23    26    1
    45    32    35    1
    46    51    53   ar
    47    39    42    1
    48    36    35    1
    49    54    55   ar
    50    26    27    1
    51    72    74   ar
    52    68    80   am
    53    68    69    2
    54    53    55   ar
    55    42    43    1
    56    42    44    1
    57    80    81    1
    58    89    87   ar
    59    89    90   ar
    60    29    28    2
    61    87    85   ar
    62    27    28    1
    63    28    30   am
    64    91    90    1
    65    90    88   ar
    66    81    84    1
    67    81    82    1
    68    85    84    1
    69    85    86   ar
    70    83    82    2
    71    82    92   am
    72    88    86   ar
    73    92    93    1
    74    21    20    1
    75   107   106   ar
    76    93    94    1
    77    93    96    1
    78   133   134    2
    79   133   132    1
    80   108   106   ar
    81    20    17    1
    82   106   105    1
    83    94    95    2
    84   116   114   am
    85   132   131    1
    86   132   135    1
    87    96    97    1
    88   104   105    1
    89   104   101    1
    90    17    18    1
    91    17    16    1
    92   114   113    1
    93   114   115    2
    94   137   139   ar
    95   137   136   ar
    96   135   136    1
    97    18    19    2
    98   113   110    1
    99    97    98    1
   100   139   141   ar
   101   102   101    1
   102   102   103    2
   103   136   138   ar
   104   101   100    1
   105    98    99    1
   106   141   142    1
   107   141   140   ar
   108   110   111    1
   109   110   109    1
   110   138   140   ar
   111   111   112    2
   112   129   130   ar
   113   129   127   ar
   114   130   128   ar
   115   127   124   ar
   116    15    13    1
   117   128   126   ar
   118   124   126   ar
   119   124   122   ar
   120   120   119    2
   121    13    14    1
   122    13    12    1
   123   126   125   ar
   124   121   122    1
   125   121   118    1
   126     4     3    2
   127   122   123   ar
   128     6     5    1
   129   119   118    1
   130    12     9    1
   131     9    10    1
   132     9     8    1
   133   118   117    1
   134   125   123   ar
   135     3     8   am
   136     3     2    1
   137    10    11    2
   138     5     2    1
   139     5     7    1
   140     2     1    1
