@<TRIPOS>MOLECULE
tmp/3dqwC00.pdb
 206 193 0 0 0
SMALL
GASTEIGER

@<TRIPOS>ATOM
      1  N        -29.7920   -6.3780   18.8360 N.3    16  LEU16      -0.1231
      2  CA       -29.5590   -6.5560   17.4070 C.3    16  LEU16       0.1693
      3  C        -28.2990   -7.3640   17.1630 C.2    16  LEU16       0.2593
      4  O        -28.2780   -8.2670   16.3270 O.2    16  LEU16      -0.2718
      5  CB       -29.4420   -5.2020   16.7100 C.3    16  LEU16       0.0284
      6  CG       -30.6990   -4.3350   16.7450 C.3    16  LEU16       0.0019
      7  CD1      -30.3930   -2.9300   16.2620 C.3    16  LEU16       0.0001
      8  CD2      -31.8170   -4.9650   15.9200 C.3    16  LEU16       0.0001
      9  N        -27.2410   -7.0330   17.8920 N.am   17  GLY17      -0.1942
     10  CA       -25.9700   -7.6990   17.7000 C.3    17  GLY17       0.2014
     11  C        -25.1270   -7.7410   18.9550 C.2    17  GLY17       0.2639
     12  O        -25.4500   -7.1060   19.9630 O.2    17  GLY17      -0.2714
     13  N        -24.0330   -8.4900   18.8830 N.am   18  GLN18      -0.1963
     14  CA       -23.1450   -8.6630   20.0180 C.3    18  GLN18       0.1733
     15  C        -21.7300   -8.9650   19.5420 C.2    18  GLN18       0.2617
     16  O        -21.4910   -9.9670   18.8670 O.2    18  GLN18      -0.2715
     17  CB       -23.6540   -9.7880   20.9230 C.3    18  GLN18       0.0408
     18  CG       -22.7900  -10.0530   22.1470 C.3    18  GLN18       0.0908
     19  CD       -23.5360  -10.8080   23.2340 C.2    18  GLN18       0.2608
     20  OE1      -24.7590  -10.7010   23.3530 O.2    18  GLN18      -0.2717
     21  NE2      -22.8010  -11.5710   24.0400 N.am   18  GLN18      -0.0878
     22  N        -20.7990   -8.0820   19.8810 N.am   19  GLY19      -0.1940
     23  CA       -19.3970   -8.2980   19.5810 C.3    19  GLY19       0.2014
     24  C        -18.6690   -8.7100   20.8430 C.2    19  GLY19       0.2639
     25  O        -19.2980   -9.0850   21.8310 O.2    19  GLY19      -0.2714
     26  N        -17.3440   -8.6370   20.8230 N.am   20  CYS20      -0.1953
     27  CA       -16.5640   -9.0130   21.9940 C.3    20  CYS20       0.1843
     28  C        -16.5010   -7.8860   23.0300 C.2    20  CYS20       0.2625
     29  O        -16.1970   -8.1230   24.1990 O.2    20  CYS20      -0.2714
     30  CB       -15.1550   -9.4460   21.5790 C.3    20  CYS20       0.0997
     31  SG       -14.3460   -8.3160   20.4300 S.3    20  CYS20      -0.0797
     32  N        -16.8050   -6.6660   22.6010 N.am   21  PHE21      -0.1960
     33  CA       -16.6570   -5.5020   23.4640 C.3    21  PHE21       0.1771
     34  C        -17.9910   -4.9360   23.9470 C.2    21  PHE21       0.2620
     35  O        -18.0220   -3.9510   24.6790 O.2    21  PHE21      -0.2715
     36  CB       -15.8740   -4.4050   22.7460 C.3    21  PHE21       0.0574
     37  CG       -14.4770   -4.8030   22.3630 C.ar   21  PHE21      -0.0200
     38  CD1      -13.5000   -4.9760   23.3300 C.ar   21  PHE21      -0.0042
     39  CD2      -14.1340   -4.9840   21.0340 C.ar   21  PHE21      -0.0042
     40  CE1      -12.2070   -5.3340   22.9790 C.ar   21  PHE21      -0.0003
     41  CE2      -12.8440   -5.3410   20.6770 C.ar   21  PHE21      -0.0003
     42  CZ       -11.8810   -5.5170   21.6530 C.ar   21  PHE21      -0.0000
     43  N        -19.0910   -5.5470   23.5300 N.am   22  GLY22      -0.1954
     44  CA       -20.3960   -5.0710   23.9370 C.3    22  GLY22       0.1869
     45  C        -21.4940   -5.5360   23.0130 C.2    22  GLY22       0.2309
     46  O        -21.2890   -6.4200   22.1830 O.2    22  GLY22      -0.2863
     47  N        -25.3060   -4.3120   20.7120 N.3    24  VAL24      -0.1245
     48  CA       -25.9990   -3.2210   20.0480 C.3    24  VAL24       0.1561
     49  C        -27.4830   -3.4990   20.1310 C.2    24  VAL24       0.2260
     50  O        -27.9290   -4.5840   19.7750 O.2    24  VAL24      -0.2867
     51  CB       -25.5870   -3.1070   18.5720 C.3    24  VAL24       0.0252
     52  CG1      -26.3730   -2.0030   17.8890 C.3    24  VAL24       0.0019
     53  CG2      -24.1010   -2.8500   18.4710 C.3    24  VAL24       0.0019
     54  N        -30.3800    3.0340   17.5380 N.3    36  ALA36      -0.1245
     55  CA       -29.4820    1.9360   17.8310 C.3    36  ALA36       0.1562
     56  C        -28.6270    2.3800   19.0100 C.2    36  ALA36       0.2260
     57  O        -28.1670    3.5190   19.0580 O.2    36  ALA36      -0.2867
     58  CB       -28.6040    1.6230   16.6190 C.3    36  ALA36       0.0290
     59  N        -25.3170    1.3680   21.3360 N.3    38  LYS38      -0.1245
     60  CA       -24.1430    0.5370   21.5760 C.3    38  LYS38       0.1561
     61  C        -23.7850    0.5470   23.0610 C.2    38  LYS38       0.2260
     62  O        -23.7220    1.6090   23.6780 O.2    38  LYS38      -0.2867
     63  CB       -22.9450    1.0500   20.7730 C.3    38  LYS38       0.0271
     64  CG       -23.2040    1.1780   19.2810 C.3    38  LYS38       0.0035
     65  CD       -21.8980    1.3660   18.5120 C.3    38  LYS38       0.0206
     66  CE       -21.0470    0.1030   18.5430 C.3    38  LYS38       0.1093
     67  NZ       -19.9960    0.0910   17.4740 N.3    38  LYS38      -0.1314
     68  N        -12.7030   -3.5950   27.3850 N.3    45  MET45      -0.1245
     69  CA       -12.1150   -2.4400   26.7210 C.3    45  MET45       0.1570
     70  C        -12.2840   -1.2160   27.6050 C.2    45  MET45       0.2261
     71  O        -13.2280   -1.1340   28.3900 O.2    45  MET45      -0.2867
     72  CB       -12.7740   -2.2070   25.3550 C.3    45  MET45       0.0387
     73  CG       -12.7750   -0.7510   24.8980 C.3    45  MET45       0.0595
     74  SD       -13.2490   -0.5100   23.1710 S.3    45  MET45      -0.1393
     75  CE       -14.8370   -1.3210   23.1240 C.3    45  MET45       0.0692
     76  N        -13.6830    2.9150   24.2860 N.3    50  PHE50      -0.1241
     77  CA       -15.0370    2.6820   23.7930 C.3    50  PHE50       0.1605
     78  C        -15.6550    3.9620   23.2420 C.2    50  PHE50       0.2264
     79  O        -16.2970    3.9490   22.1890 O.2    50  PHE50      -0.2867
     80  CB       -15.9210    2.1100   24.9060 C.3    50  PHE50       0.0534
     81  CG       -17.3210    1.7790   24.4660 C.ar   50  PHE50      -0.0203
     82  CD1      -17.5730    0.6550   23.6950 C.ar   50  PHE50      -0.0042
     83  CD2      -18.3840    2.5830   24.8320 C.ar   50  PHE50      -0.0042
     84  CE1      -18.8550    0.3420   23.2960 C.ar   50  PHE50      -0.0003
     85  CE2      -19.6750    2.2750   24.4340 C.ar   50  PHE50      -0.0003
     86  CZ       -19.9110    1.1510   23.6650 C.ar   50  PHE50      -0.0000
     87  N        -14.9240    6.0420   19.5390 N.3    53  GLU53      -0.1245
     88  CA       -15.8170    5.9410   18.3960 C.3    53  GLU53       0.1567
     89  C        -16.7930    7.1060   18.3520 C.2    53  GLU53       0.2260
     90  O        -17.0690    7.6470   17.2860 O.2    53  GLU53      -0.2867
     91  CB       -16.5800    4.6220   18.4290 C.3    53  GLU53       0.0388
     92  CG       -17.4900    4.4250   17.2350 C.3    53  GLU53       0.1160
     93  CD       -18.4170    3.2360   17.3920 C.2    53  GLU53       0.3649
     94  OE1      -18.1580    2.3860   18.2710 O.co2  53  GLU53      -0.2457
     95  OE2      -19.4030    3.1510   16.6280 O.co2  53  GLU53      -0.2457
     96  N        -22.7770    6.6870    9.2160 N.3    66  VAL66      -0.1245
     97  CA       -23.7870    6.5340   10.2650 C.3    66  VAL66       0.1561
     98  C        -23.7160    7.7020   11.2390 C.2    66  VAL66       0.2260
     99  O        -22.6380    8.1470   11.6090 O.2    66  VAL66      -0.2867
    100  CB       -23.6420    5.2080   11.0250 C.3    66  VAL66       0.0252
    101  CG1      -24.6780    5.1260   12.1260 C.3    66  VAL66       0.0019
    102  CG2      -23.8100    4.0350   10.0620 C.3    66  VAL66       0.0019
    103  N        -26.9250    5.8980   18.2160 N.3    81  ILE81      -0.1231
    104  CA       -26.7230    6.2380   16.8130 C.3    81  ILE81       0.1692
    105  C        -27.9670    5.9940   15.9820 C.2    81  ILE81       0.2592
    106  O        -28.8970    5.3010   16.4000 O.2    81  ILE81      -0.2718
    107  CB       -25.5640    5.4300   16.1860 C.3    81  ILE81       0.0266
    108  CG1      -25.8870    3.9360   16.2080 C.3    81  ILE81       0.0019
    109  CG2      -24.2340    5.7240   16.8880 C.3    81  ILE81       0.0020
    110  CD1      -24.8070    3.0850   15.5680 C.3    81  ILE81       0.0001
    111  N        -27.9570    6.5860   14.7950 N.am   82  GLU82      -0.1966
    112  CA       -28.9480    6.3400   13.7620 C.3    82  GLU82       0.1733
    113  C        -29.2750    4.8460   13.6410 C.2    82  GLU82       0.2616
    114  O        -28.3750    4.0170   13.5100 O.2    82  GLU82      -0.2715
    115  CB       -28.3610    6.8510   12.4420 C.3    82  GLU82       0.0429
    116  CG       -29.3130    6.9310   11.2840 C.3    82  GLU82       0.1163
    117  CD       -28.6240    7.4000   10.0200 C.2    82  GLU82       0.3649
    118  OE1      -27.4270    7.7830   10.0860 O.co2  82  GLU82      -0.2457
    119  OE2      -29.2800    7.3810    8.9600 O.co2  82  GLU82      -0.2457
    120  N        -30.5610    4.5060   13.6800 N.am   83  TYR83      -0.1960
    121  CA       -31.0020    3.1340   13.4430 C.3    83  TYR83       0.1771
    122  C        -31.0460    2.8110   11.9380 C.2    83  TYR83       0.2619
    123  O        -31.7340    3.4880   11.1790 O.2    83  TYR83      -0.2715
    124  CB       -32.3860    2.9070   14.0620 C.3    83  TYR83       0.0574
    125  CG       -32.9850    1.5530   13.7470 C.ar   83  TYR83      -0.0198
    126  CD1      -32.4480    0.3950   14.2870 C.ar   83  TYR83      -0.0009
    127  CD2      -34.0800    1.4360   12.9070 C.ar   83  TYR83      -0.0009
    128  CE1      -32.9850   -0.8500   13.9990 C.ar   83  TYR83       0.0417
    129  CE2      -34.6270    0.1960   12.6120 C.ar   83  TYR83       0.0417
    130  CZ       -34.0730   -0.9420   13.1590 C.ar   83  TYR83       0.1957
    131  OH       -34.6100   -2.1770   12.8710 O.3    83  TYR83      -0.2866
    132  N        -30.3210    1.7710   11.5260 N.am   84  MET84      -0.1977
    133  CA       -30.2920    1.3280   10.1270 C.3    84  MET84       0.1605
    134  C        -31.0500    0.0090    9.9600 C.2    84  MET84       0.2287
    135  O        -30.5550   -1.0560   10.3370 O.2    84  MET84      -0.2864
    136  CB       -28.8430    1.1730    9.6520 C.3    84  MET84       0.0413
    137  CG       -28.0150    2.4470    9.7820 C.3    84  MET84       0.0598
    138  SD       -28.6490    3.7740    8.7300 S.3    84  MET84      -0.1393
    139  CE       -28.2720    3.1230    7.0990 C.3    84  MET84       0.0692
    140  N        -29.5530   -3.6990    9.0460 N.3    87  GLY87      -0.1210
    141  CA       -28.3820   -4.2650    9.6850 C.3    87  GLY87       0.1956
    142  C        -27.1470   -4.0970    8.8130 C.2    87  GLY87       0.2612
    143  O        -27.0860   -3.1990    7.9760 O.2    87  GLY87      -0.2717
    144  N        -26.1610   -4.9650    9.0010 N.am   88  SER88      -0.1952
    145  CA       -24.9080   -4.8130    8.2910 C.3    88  SER88       0.1924
    146  C        -25.0640   -5.2100    6.8280 C.2    88  SER88       0.2314
    147  O        -25.8950   -6.0520    6.4730 O.2    88  SER88      -0.2863
    148  CB       -23.7980   -5.6350    8.9470 C.3    88  SER88       0.2116
    149  OG       -23.9930   -7.0190    8.7440 O.3    88  SER88      -0.2180
    150  N        -24.8160   -9.0000    6.4080 N.3    91  ASP91      -0.1239
    151  CA       -26.0470   -9.7340    6.6680 C.3    91  ASP91       0.1674
    152  C        -27.0750   -9.5160    5.5620 C.2    91  ASP91       0.2266
    153  O        -27.7570  -10.4530    5.1460 O.2    91  ASP91      -0.2867
    154  CB       -26.6290   -9.3450    8.0240 C.3    91  ASP91       0.1410
    155  CG       -25.7920   -9.8570    9.1850 C.2    91  ASP91       0.3668
    156  OD1      -24.9770  -10.7840    8.9830 O.co2  91  ASP91      -0.2456
    157  OD2      -25.9510   -9.3320   10.3020 O.co2  91  ASP91      -0.2456
    158  N        -10.7960   -0.0870    9.4100 N.3   129  ASP129     -0.1239
    159  CA       -11.6250   -1.2810    9.5680 C.3   129  ASP129      0.1674
    160  C        -12.7200   -1.3620    8.4950 C.2   129  ASP129      0.2266
    161  O        -13.8250   -1.8330    8.7610 O.2   129  ASP129     -0.2867
    162  CB       -12.2520   -1.2990   10.9680 C.3   129  ASP129      0.1410
    163  CG       -12.5410   -2.7110   11.4750 C.2   129  ASP129      0.3668
    164  OD1      -12.2170   -3.6910   10.7650 O.co2 129  ASP129     -0.2456
    165  OD2      -13.0890   -2.8320   12.5980 O.co2 129  ASP129     -0.2456
    166  N        -18.8400   -5.9840    6.9390 N.3   133  ALA133     -0.1231
    167  CA       -19.3850   -6.1020    8.2940 C.3   133  ALA133      0.1694
    168  C        -19.5820   -4.7410    8.9580 C.2   133  ALA133      0.2592
    169  O        -20.4110   -4.5960    9.8510 O.2   133  ALA133     -0.2718
    170  CB       -18.4860   -6.9860    9.1540 C.3   133  ALA133      0.0304
    171  N        -18.8190   -3.7510    8.5050 N.am  134  ASN134     -0.1974
    172  CA       -18.8480   -2.4080    9.0760 C.3   134  ASN134      0.1688
    173  C        -19.5630   -1.3630    8.2140 C.2   134  ASN134      0.2292
    174  O        -19.3900   -0.1600    8.4060 O.2   134  ASN134     -0.2864
    175  CB       -17.4210   -1.9710    9.4330 C.3   134  ASN134      0.1181
    176  CG       -16.8790   -2.7570   10.6090 C.2   134  ASN134      0.2629
    177  OD1      -17.6610   -3.2820   11.3950 O.2   134  ASN134     -0.2716
    178  ND2      -15.5590   -2.8590   10.7300 N.am  134  ASN134     -0.0877
    179  N        -23.4750   -0.2970    7.2470 N.3   136  LEU136     -0.1245
    180  CA       -24.8610   -0.5000    7.6510 C.3   136  LEU136      0.1561
    181  C        -25.8240   -0.0890    6.5400 C.2   136  LEU136      0.2260
    182  O        -25.5840    0.8880    5.8240 O.2   136  LEU136     -0.2867
    183  CB       -25.1670    0.2920    8.9170 C.3   136  LEU136      0.0270
    184  CG       -24.3130   -0.0840   10.1300 C.3   136  LEU136      0.0019
    185  CD1      -24.7590    0.7160   11.3430 C.3   136  LEU136      0.0001
    186  CD2      -24.4040   -1.5840   10.4040 C.3   136  LEU136      0.0001
    187  N        -18.8780    1.9190   12.4830 N.3   147  ASP147     -0.1239
    188  CA       -17.7880    1.3870   13.3010 C.3   147  ASP147      0.1674
    189  C        -16.4680    2.1320   13.1600 C.2   147  ASP147      0.2266
    190  O        -15.4670    1.5680   12.7080 O.2   147  ASP147     -0.2867
    191  CB       -17.5900   -0.0910   13.0080 C.3   147  ASP147      0.1410
    192  CG       -18.8130   -0.8990   13.3450 C.2   147  ASP147      0.3668
    193  OD1      -18.8420   -1.5010   14.4390 O.co2 147  ASP147     -0.2456
    194  OD2      -19.7610   -0.9010   12.5310 O.co2 147  ASP147     -0.2456
    195  N        -14.4840    3.0410   15.4030 N.3   149  GLY149     -0.1210
    196  CA       -13.7490    2.8700   16.6450 C.3   149  GLY149      0.1956
    197  C        -12.2430    2.9540   16.4700 C.2   149  GLY149      0.2611
    198  O        -11.5310    3.4440   17.3460 O.2   149  GLY149     -0.2717
    199  N        -11.7580    2.4780   15.3310 N.am  150  LEU150     -0.1979
    200  CA       -10.3260    2.4770   15.0450 C.3   150  LEU150      0.1596
    201  C         -9.8890    3.6570   14.1700 C.2   150  LEU150      0.2287
    202  O         -8.7230    3.7440   13.7690 O.2   150  LEU150     -0.2864
    203  CB        -9.9310    1.1630   14.3750 C.3   150  LEU150      0.0297
    204  CG       -10.2770   -0.0960   15.1710 C.3   150  LEU150      0.0022
    205  CD1       -9.9220   -1.3440   14.3820 C.3   150  LEU150      0.0001
    206  CD2       -9.5610   -0.0870   16.5150 C.3   150  LEU150      0.0001
@<TRIPOS>BOND
     1   153   152    2
     2   152   151    1
     3   182   181    2
     4   150   151    1
     5   147   146    2
     6   181   180    1
     7   151   154    1
     8   146   145    1
     9   166   167    1
    10   139   138    1
    11   179   180    1
    12   180   183    1
    13   143   142    2
    14   154   155    1
    15   173   174    2
    16   173   172    1
    17   145   148    1
    18   145   144    1
    19   167   168    1
    20   167   170    1
    21   160   161    2
    22   160   159    1
    23   171   168   am
    24   171   172    1
    25   138   137    1
    26   149   148    1
    27   142   144   am
    28   142   141    1
    29   183   184    1
    30   168   169    2
    31   119   117   ar
    32   156   155   ar
    33   140   141    1
    34   172   175    1
    35   155   157   ar
    36    96    97    1
    37   158   159    1
    38   175   176    1
    39   159   162    1
    40   136   137    1
    41   136   133    1
    42   134   133    1
    43   134   135    2
    44   117   118   ar
    45   117   116    1
    46   102   100    1
    47   133   132    1
    48   184   186    1
    49   184   185    1
    50    97   100    1
    51    97    98    1
    52   176   178   am
    53   176   177    2
    54   164   163   ar
    55   162   163    1
    56   100   101    1
    57   123   122    2
    58    98    99    2
    59   116   115    1
    60   163   165   ar
    61   132   122   am
    62   122   121    1
    63   115   112    1
    64   187   188    1
    65   194   192   ar
    66   129   127   ar
    67   129   130   ar
    68   190   189    2
    69   131   130    1
    70   127   125   ar
    71   191   188    1
    72   191   192    1
    73   130   128   ar
    74   189   188    1
    75   192   193   ar
    76   121   120    1
    77   121   124    1
    78   114   113    2
    79   113   120   am
    80   113   112    1
    81   125   124    1
    82   125   126   ar
    83   112   111    1
    84   202   201    2
    85   128   126   ar
    86   201   200    1
    87   203   200    1
    88   203   204    1
    89   205   204    1
    90   111   105   am
    91   200   199    1
    92   204   206    1
    93   199   197   am
    94   195   196    1
    95   110   108    1
    96     8     6    1
    97   105   106    2
    98   105   104    1
    99   107   108    1
   100   107   104    1
   101   107   109    1
   102     7     6    1
   103     4     3    2
   104   197   196    1
   105   197   198    2
   106    58    55    1
   107    95    93   ar
   108     5     6    1
   109     5     2    1
   110   104   103    1
   111     3     2    1
   112     3     9   am
   113    92    93    1
   114    92    91    1
   115    90    89    2
   116    93    94   ar
   117     2     1    1
   118    67    66    1
   119    54    55    1
   120    10     9    1
   121    10    11    1
   122    55    56    1
   123    52    51    1
   124    89    88    1
   125    88    91    1
   126    88    87    1
   127    53    51    1
   128    65    66    1
   129    65    64    1
   130    51    48    1
   131    16    15    2
   132    13    11   am
   133    13    14    1
   134    11    12    2
   135    56    57    2
   136    64    63    1
   137    15    22   am
   138    15    14    1
   139    23    22    1
   140    23    24    1
   141    50    49    2
   142    14    17    1
   143    48    49    1
   144    48    47    1
   145    31    30    1
   146    41    39   ar
   147    41    42   ar
   148    63    60    1
   149    26    24   am
   150    26    27    1
   151    24    25    2
   152    17    18    1
   153    39    37   ar
   154    59    60    1
   155    60    61    1
   156    30    27    1
   157    42    40   ar
   158    27    28    1
   159    18    19    1
   160    46    45    2
   161    79    78    2
   162    37    36    1
   163    37    38   ar
   164    32    28   am
   165    32    33    1
   166    36    33    1
   167    40    38   ar
   168    45    44    1
   169    28    29    2
   170    61    62    2
   171    75    74    1
   172    74    73    1
   173    19    20    2
   174    19    21   am
   175    78    77    1
   176    84    86   ar
   177    84    82   ar
   178    33    34    1
   179    43    44    1
   180    43    34   am
   181    86    85   ar
   182    82    81   ar
   183    77    76    1
   184    77    80    1
   185    34    35    2
   186    85    83   ar
   187    81    83   ar
   188    81    80    1
   189    73    72    1
   190    72    69    1
   191    69    68    1
   192    69    70    1
   193    70    71    2
