@<TRIPOS>MOLECULE
tmp/3dqxA00.pdb
 143 133 0 0 0
SMALL
GASTEIGER

@<TRIPOS>ATOM
      1  N         -1.2230   -4.2640  -43.7740 N.3    15  LEU15      -0.1231
      2  CA        -1.2610   -5.5520  -43.0890 C.3    15  LEU15       0.1693
      3  C         -2.4690   -6.4060  -43.4910 C.2    15  LEU15       0.2593
      4  O         -2.3540   -7.6230  -43.6360 O.2    15  LEU15      -0.2718
      5  CB        -1.2370   -5.3610  -41.5640 C.3    15  LEU15       0.0284
      6  CG        -0.0400   -4.6590  -40.9140 C.3    15  LEU15       0.0019
      7  CD1       -0.2900   -4.4560  -39.4180 C.3    15  LEU15       0.0001
      8  CD2        1.2630   -5.4200  -41.1480 C.3    15  LEU15       0.0001
      9  N         -3.6210   -5.7600  -43.6560 N.am   16  GLY16      -0.1942
     10  CA        -4.8700   -6.4440  -43.9860 C.3    16  GLY16       0.2014
     11  C         -5.7650   -5.5670  -44.8410 C.2    16  GLY16       0.2638
     12  O         -5.5900   -4.3450  -44.8810 O.2    16  GLY16      -0.2714
     13  N         -6.7240   -6.1850  -45.5310 N.am   17  GLN17      -0.1977
     14  CA        -7.5930   -5.4690  -46.4750 C.3    17  GLN17       0.1601
     15  C         -8.8650   -6.2680  -46.7730 C.2    17  GLN17       0.2287
     16  O         -8.8920   -7.4870  -46.5980 O.2    17  GLN17      -0.2864
     17  CB        -6.8410   -5.1760  -47.7830 C.3    17  GLN17       0.0394
     18  CG        -7.4470   -4.0580  -48.6290 C.3    17  GLN17       0.0908
     19  CD        -6.8180   -3.9460  -50.0090 C.2    17  GLN17       0.2608
     20  OE1       -6.3720   -4.9400  -50.5850 O.2    17  GLN17      -0.2717
     21  NE2       -6.7940   -2.7300  -50.5530 N.am   17  GLN17      -0.0878
     22  N        -14.4450   -4.2350  -46.1330 N.3    20  PHE20      -0.1241
     23  CA       -14.4870   -3.4300  -44.9110 C.3    20  PHE20       0.1605
     24  C        -13.7340   -2.1030  -45.1100 C.2    20  PHE20       0.2264
     25  O        -14.3400   -1.0380  -45.2580 O.2    20  PHE20      -0.2867
     26  CB       -13.8160   -4.2060  -43.7530 C.3    20  PHE20       0.0534
     27  CG       -14.6530   -5.3270  -43.1630 C.ar   20  PHE20      -0.0203
     28  CD1      -14.9750   -6.4640  -43.9070 C.ar   20  PHE20      -0.0042
     29  CD2      -15.0690   -5.2640  -41.8340 C.ar   20  PHE20      -0.0042
     30  CE1      -15.7320   -7.4970  -43.3510 C.ar   20  PHE20      -0.0003
     31  CE2      -15.8210   -6.2950  -41.2680 C.ar   20  PHE20      -0.0003
     32  CZ       -16.1510   -7.4140  -42.0290 C.ar   20  PHE20      -0.0000
     33  N         -6.1670   -2.1810  -42.9450 N.3    23  VAL23      -0.1245
     34  CA        -5.4320   -2.1400  -41.6780 C.3    23  VAL23       0.1561
     35  C         -3.9550   -1.8500  -41.9760 C.2    23  VAL23       0.2260
     36  O         -3.3390   -2.5040  -42.8240 O.2    23  VAL23      -0.2867
     37  CB        -5.6190   -3.4390  -40.8240 C.3    23  VAL23       0.0252
     38  CG1       -4.5010   -3.6070  -39.8080 C.3    23  VAL23       0.0019
     39  CG2       -6.9670   -3.4220  -40.1080 C.3    23  VAL23       0.0019
     40  N         -1.1830    0.5840  -34.7820 N.3    35  ALA35      -0.1245
     41  CA        -1.9680   -0.0600  -35.8180 C.3    35  ALA35       0.1562
     42  C         -3.1360    0.8530  -36.1330 C.2    35  ALA35       0.2260
     43  O         -3.7420    1.4410  -35.2310 O.2    35  ALA35      -0.2867
     44  CB        -2.4640   -1.4140  -35.3650 C.3    35  ALA35       0.0290
     45  N         -6.7470    1.3460  -38.2200 N.3    37  LYS37      -0.1245
     46  CA        -7.8870    0.7170  -38.8790 C.3    37  LYS37       0.1561
     47  C         -8.6580    1.7440  -39.7150 C.2    37  LYS37       0.2260
     48  O         -9.3940    2.5750  -39.1780 O.2    37  LYS37      -0.2867
     49  CB        -8.8050    0.0340  -37.8500 C.3    37  LYS37       0.0271
     50  CG        -8.0660   -0.7470  -36.7450 C.3    37  LYS37       0.0035
     51  CD        -8.9980   -1.6760  -35.9600 C.3    37  LYS37       0.0206
     52  CE        -8.2160   -2.8100  -35.2960 C.3    37  LYS37       0.1093
     53  NZ        -9.0220   -4.0620  -35.0880 N.3    37  LYS37      -0.1314
     54  N         -6.5950   -5.7250  -26.6520 N.3    65  VAL65      -0.1245
     55  CA        -5.9970   -4.7030  -27.5270 C.3    65  VAL65       0.1561
     56  C         -6.5680   -3.3490  -27.1440 C.2    65  VAL65       0.2260
     57  O         -7.7780   -3.2140  -26.9230 O.2    65  VAL65      -0.2867
     58  CB        -6.2570   -4.9920  -29.0230 C.3    65  VAL65       0.0252
     59  CG1       -5.5030   -3.9820  -29.9070 C.3    65  VAL65       0.0019
     60  CG2       -5.8300   -6.4160  -29.3590 C.3    65  VAL65       0.0019
     61  N         -4.7870    1.8990  -32.5770 N.3    80  THR80      -0.1203
     62  CA        -4.6800    0.9190  -31.4950 C.3    80  THR80       0.1994
     63  C         -3.2490    0.4290  -31.2810 C.2    80  THR80       0.2618
     64  O         -2.3360    0.7700  -32.0350 O.2    80  THR80      -0.2717
     65  CB        -5.5560   -0.3330  -31.7490 C.3    80  THR80       0.1784
     66  OG1       -5.1770   -0.9240  -32.9920 O.3    80  THR80      -0.2211
     67  CG2       -7.0330    0.0110  -31.7810 C.3    80  THR80       0.0376
     68  N         -3.0810   -0.3850  -30.2400 N.am   81  GLU81      -0.1965
     69  CA        -1.8210   -1.0600  -29.9610 C.3    81  GLU81       0.1733
     70  C         -1.4090   -1.9710  -31.1260 C.2    81  GLU81       0.2616
     71  O         -2.2410   -2.6780  -31.6840 O.2    81  GLU81      -0.2715
     72  CB        -1.9650   -1.8820  -28.6840 C.3    81  GLU81       0.0429
     73  CG        -0.6760   -2.5130  -28.2080 C.3    81  GLU81       0.1163
     74  CD        -0.9130   -3.5330  -27.1300 C.2    81  GLU81       0.3649
     75  OE1       -2.0250   -3.5400  -26.5520 O.co2  81  GLU81      -0.2457
     76  OE2        0.0140   -4.3260  -26.8700 O.co2  81  GLU81      -0.2457
     77  N         -0.1280   -1.9480  -31.4880 N.am   82  TYR82      -0.1960
     78  CA         0.3750   -2.8100  -32.5530 C.3    82  TYR82       0.1771
     79  C          0.7760   -4.2040  -32.0440 C.2    82  TYR82       0.2619
     80  O          1.6350   -4.3430  -31.1520 O.2    82  TYR82      -0.2715
     81  CB         1.5390   -2.1370  -33.2950 C.3    82  TYR82       0.0574
     82  CG         2.1620   -3.0020  -34.3720 C.ar   82  TYR82      -0.0198
     83  CD1        1.4780   -3.2780  -35.5550 C.ar   82  TYR82      -0.0009
     84  CD2        3.4390   -3.5430  -34.2100 C.ar   82  TYR82      -0.0009
     85  CE1        2.0400   -4.0850  -36.5360 C.ar   82  TYR82       0.0417
     86  CE2        4.0190   -4.3400  -35.1940 C.ar   82  TYR82       0.0417
     87  CZ         3.3150   -4.6050  -36.3550 C.ar   82  TYR82       0.1957
     88  OH         3.8850   -5.4000  -37.3290 O.3    82  TYR82      -0.2866
     89  N          0.1490   -5.2290  -32.6240 N.am   83  MET83      -0.1977
     90  CA         0.4430   -6.6310  -32.3060 C.3    83  MET83       0.1605
     91  C          1.3030   -7.2720  -33.3890 C.2    83  MET83       0.2287
     92  O          0.8140   -7.5900  -34.4820 O.2    83  MET83      -0.2864
     93  CB        -0.8540   -7.4210  -32.1120 C.3    83  MET83       0.0413
     94  CG        -1.7700   -6.8350  -31.0380 C.3    83  MET83       0.0598
     95  SD        -0.9700   -6.7580  -29.4120 S.3    83  MET83      -0.1393
     96  CE        -1.0600   -8.4900  -28.9440 C.3    83  MET83       0.0692
     97  N          0.3110  -10.6150  -35.5420 N.3    86  GLY86      -0.1210
     98  CA        -0.9440  -10.7110  -36.2690 C.3    86  GLY86       0.1956
     99  C         -1.9720  -11.6010  -35.5870 C.2    86  GLY86       0.2612
    100  O         -2.0270  -11.6930  -34.3660 O.2    86  GLY86      -0.2717
    101  N         -2.7890  -12.2380  -36.4110 N.am   87  SER87      -0.1952
    102  CA        -3.8940  -13.0780  -36.0170 C.3    87  SER87       0.1924
    103  C         -3.4380  -14.3710  -35.3210 C.2    87  SER87       0.2314
    104  O         -2.4840  -15.0060  -35.7550 O.2    87  SER87      -0.2863
    105  CB        -4.6290  -13.4280  -37.3070 C.3    87  SER87       0.2116
    106  OG        -5.9050  -13.9400  -37.0940 O.3    87  SER87      -0.2180
    107  N         -3.8880  -17.1020  -38.0200 N.3    90  ASP90      -0.1239
    108  CA        -2.7930  -17.1070  -38.9770 C.3    90  ASP90       0.1674
    109  C         -1.5090  -17.6690  -38.3590 C.2    90  ASP90       0.2266
    110  O         -0.8050  -18.4580  -38.9780 O.2    90  ASP90      -0.2867
    111  CB        -2.5510  -15.6930  -39.5300 C.3    90  ASP90       0.1410
    112  CG        -3.7240  -15.1740  -40.3810 C.2    90  ASP90       0.3668
    113  OD1       -4.6610  -15.9620  -40.6780 O.co2  90  ASP90      -0.2456
    114  OD2       -3.7130  -13.9730  -40.7590 O.co2  90  ASP90      -0.2456
    115  N         -9.5480  -15.9060  -34.9920 N.3   132  ALA132     -0.1231
    116  CA        -9.3050  -14.8410  -35.9830 C.3   132  ALA132      0.1694
    117  C         -9.3850  -13.4420  -35.3410 C.2   132  ALA132      0.2592
    118  O         -8.8830  -12.4530  -35.9000 O.2   132  ALA132     -0.2718
    119  CB       -10.2580  -14.9530  -37.2040 C.3   132  ALA132      0.0304
    120  N        -10.0000  -13.3850  -34.1600 N.am  133  ASN133     -0.1974
    121  CA       -10.1650  -12.1250  -33.4320 C.3   133  ASN133      0.1688
    122  C         -9.3090  -12.0590  -32.1670 C.2   133  ASN133      0.2292
    123  O         -9.5850  -11.2520  -31.2680 O.2   133  ASN133     -0.2864
    124  CB       -11.6570  -11.8670  -33.1090 C.3   133  ASN133      0.1181
    125  CG       -12.4700  -11.5110  -34.3530 C.2   133  ASN133      0.2629
    126  OD1      -11.9490  -10.9090  -35.2830 O.2   133  ASN133     -0.2716
    127  ND2      -13.7390  -11.8980  -34.3750 N.am  133  ASN133     -0.0877
    128  N         -5.2800  -11.4180  -31.1990 N.3   135  LEU135     -0.1245
    129  CA        -4.0450  -10.9060  -31.7770 C.3   135  LEU135      0.1561
    130  C         -2.8520  -11.3200  -30.9280 C.2   135  LEU135      0.2260
    131  O         -2.9200  -11.3640  -29.7060 O.2   135  LEU135     -0.2867
    132  CB        -4.1080   -9.4010  -31.9460 C.3   135  LEU135      0.0270
    133  CG        -4.9100   -8.8270  -33.1240 C.3   135  LEU135      0.0019
    134  CD1       -4.9690   -7.3000  -33.0110 C.3   135  LEU135      0.0001
    135  CD2       -4.3130   -9.2150  -34.4780 C.3   135  LEU135      0.0001
    136  N        -11.0890   -6.7490  -31.7560 N.3   146  ASP146     -0.1239
    137  CA       -12.3170   -6.6790  -32.5630 C.3   146  ASP146      0.1674
    138  C        -13.6230   -6.5860  -31.7640 C.2   146  ASP146      0.2266
    139  O        -14.4370   -7.5120  -31.7630 O.2   146  ASP146     -0.2867
    140  CB       -12.3580   -7.8310  -33.5830 C.3   146  ASP146      0.1410
    141  CG       -11.2750   -7.7010  -34.6580 C.2   146  ASP146      0.3668
    142  OD1      -11.4410   -6.8790  -35.5850 O.co2 146  ASP146     -0.2456
    143  OD2      -10.2550   -8.4280  -34.5820 O.co2 146  ASP146     -0.2456
@<TRIPOS>BOND
     1    20    19    2
     2    21    19   am
     3    19    18    1
     4    18    17    1
     5    17    14    1
     6    15    16    2
     7    15    14    1
     8    14    13    1
     9    22    23    1
    10    13    11   am
    11    25    24    2
    12    24    23    1
    13    23    26    1
    14    12    11    2
    15    11    10    1
    16    10     9    1
    17    28    30   ar
    18    28    27   ar
    19     1     2    1
    20    26    27    1
    21     9     3   am
    22     4     3    2
    23     3     2    1
    24    30    32   ar
    25    27    29   ar
    26     2     5    1
    27    33    34    1
    28    36    35    2
    29    32    31   ar
    30    35    34    1
    31    29    31   ar
    32    34    37    1
    33     5     6    1
    34     8     6    1
    35     6     7    1
    36    37    39    1
    37    37    38    1
    38   114   112   ar
    39   113   112   ar
    40   112   111    1
    41    47    48    2
    42    47    46    1
    43   111   108    1
    44   110   109    2
    45   108   109    1
    46   108   107    1
    47    46    45    1
    48    46    49    1
    49    49    50    1
    50    88    87    1
    51   105   106    1
    52   105   102    1
    53   119   116    1
    54    50    51    1
    55    85    87   ar
    56    85    83   ar
    57   101   102    1
    58   101    99   am
    59    87    86   ar
    60    98    99    1
    61    98    97    1
    62    42    41    1
    63    42    43    2
    64   102   103    1
    65   116   117    1
    66   116   115    1
    67    51    52    1
    68   118   117    2
    69    41    44    1
    70    41    40    1
    71   104   103    2
    72    99   100    2
    73   142   141   ar
    74    83    82   ar
    75   117   120   am
    76    52    53    1
    77   126   125    2
    78    86    84   ar
    79   141   143   ar
    80   141   140    1
    81    92    91    2
    82   135   133    1
    83   127   125   am
    84    82    84   ar
    85    82    81    1
    86   125   124    1
    87   120   121    1
    88   140   137    1
    89   121   124    1
    90   121   122    1
    91    91    90    1
    92    81    78    1
    93   133   134    1
    94   133   132    1
    95    66    65    1
    96    89    90    1
    97    89    79   am
    98    61    62    1
    99   137   138    1
   100   137   136    1
   101    78    79    1
   102    78    77    1
   103    90    93    1
   104   122   123    2
   105    93    94    1
   106    79    80    2
   107    64    63    2
   108   132   129    1
   109    67    65    1
   110   129   128    1
   111   129   130    1
   112   138   139    2
   113    65    62    1
   114    71    70    2
   115    62    63    1
   116    77    70   am
   117    63    68   am
   118    70    69    1
   119    94    95    1
   120   130   131    2
   121    68    69    1
   122    69    72    1
   123    59    58    1
   124    95    96    1
   125    60    58    1
   126    58    55    1
   127    72    73    1
   128    73    74    1
   129    55    56    1
   130    55    54    1
   131    56    57    2
   132    74    76   ar
   133    74    75   ar
