@<TRIPOS>MOLECULE
tmp/3dr1A00.pdb
 142 134 0 0 0
SMALL
GASTEIGER

@<TRIPOS>ATOM
      1  N          9.7800   38.1650   34.8200 N.3    54  ILE54      -0.1231
      2  CA        11.2120   37.9300   34.9590 C.3    54  ILE54       0.1692
      3  C         11.9190   39.2350   34.6070 C.2    54  ILE54       0.2591
      4  O         12.8660   39.6390   35.2730 O.2    54  ILE54      -0.2718
      5  CB        11.6930   36.7990   34.0140 C.3    54  ILE54       0.0266
      6  CG1       11.0010   35.4810   34.3910 C.3    54  ILE54       0.0019
      7  CG2       13.2000   36.6200   34.1240 C.3    54  ILE54       0.0020
      8  CD1       11.2010   34.3490   33.3870 C.3    54  ILE54       0.0001
      9  N         11.4440   39.9000   33.5600 N.am   55  GLN55      -0.1979
     10  CA        12.0330   41.1670   33.1370 C.3    55  GLN55       0.1601
     11  C         11.9210   42.1760   34.2690 C.2    55  GLN55       0.2287
     12  O         12.8270   42.9840   34.4950 O.2    55  GLN55      -0.2864
     13  CB        11.3160   41.6870   31.8930 C.3    55  GLN55       0.0394
     14  CG        11.5010   40.7850   30.6790 C.3    55  GLN55       0.0908
     15  CD        10.8970   41.3660   29.4100 C.2    55  GLN55       0.2608
     16  OE1       11.2170   42.4810   29.0250 O.2    55  GLN55      -0.2717
     17  NE2       10.0240   40.6050   28.7570 N.am   55  GLN55      -0.0878
     18  N         14.2390   41.1950   37.2680 N.3    58  ILE58      -0.1245
     19  CA        15.6220   41.5230   36.9610 C.3    58  ILE58       0.1561
     20  C         15.8450   42.9980   37.2510 C.2    58  ILE58       0.2260
     21  O         16.8750   43.3750   37.7930 O.2    58  ILE58      -0.2867
     22  CB        15.9410   41.2510   35.4700 C.3    58  ILE58       0.0252
     23  CG1       15.9890   39.7420   35.2050 C.3    58  ILE58       0.0019
     24  CG2       17.2510   41.9070   35.0760 C.3    58  ILE58       0.0019
     25  CD1       16.0150   39.3850   33.7050 C.3    58  ILE58       0.0001
     26  N         18.5430   44.3420   40.0670 N.3    62  LYS62      -0.1245
     27  CA        19.6160   45.2560   39.7300 C.3    62  LYS62       0.1561
     28  C         19.6330   46.4460   40.6590 C.2    62  LYS62       0.2260
     29  O         20.6210   47.1730   40.7220 O.2    62  LYS62      -0.2867
     30  CB        19.4610   45.7420   38.2950 C.3    62  LYS62       0.0271
     31  CG        19.6080   44.6490   37.2690 C.3    62  LYS62       0.0035
     32  CD        19.2270   45.1320   35.8810 C.3    62  LYS62       0.0206
     33  CE        20.1200   46.2680   35.4150 C.3    62  LYS62       0.1093
     34  NZ        19.8610   46.6120   33.9930 N.3    62  LYS62      -0.1314
     35  N         23.8060   43.7090   44.8830 N.3    67  PHE67      -0.1227
     36  CA        23.6430   42.8030   43.7480 C.3    67  PHE67       0.1736
     37  C         24.4770   43.1610   42.5020 C.2    67  PHE67       0.2595
     38  O         25.1490   42.3040   41.9320 O.2    67  PHE67      -0.2718
     39  CB        22.1600   42.7460   43.3640 C.3    67  PHE67       0.0547
     40  CG        21.8450   41.7310   42.3090 C.ar   67  PHE67      -0.0202
     41  CD1       21.6470   40.3970   42.6470 C.ar   67  PHE67      -0.0042
     42  CD2       21.7750   42.1010   40.9710 C.ar   67  PHE67      -0.0042
     43  CE1       21.3880   39.4410   41.6690 C.ar   67  PHE67      -0.0003
     44  CE2       21.5180   41.1570   39.9860 C.ar   67  PHE67      -0.0003
     45  CZ        21.3250   39.8260   40.3370 C.ar   67  PHE67      -0.0000
     46  N         24.4260   44.4180   42.0730 N.am   68  ARG68      -0.1980
     47  CA        25.1710   44.8300   40.8930 C.3    68  ARG68       0.1597
     48  C         26.6670   44.5330   41.0120 C.2    68  ARG68       0.2287
     49  O         27.3560   44.3840   40.0050 O.2    68  ARG68      -0.2864
     50  CB        24.9650   46.3230   40.6220 C.3    68  ARG68       0.0334
     51  CG        25.8530   46.8980   39.4940 C.3    68  ARG68       0.0492
     52  CD        25.6510   48.3510   39.2420 C.3    68  ARG68       0.2205
     53  NE        24.2820   48.6260   38.7770 N.pl3  68  ARG68      -0.0865
     54  CZ        23.3780   49.2530   39.5890 C.cat  68  ARG68       0.5346
     55  NH1       23.6290   49.7210   40.8230 N.pl3  68  ARG68       0.1354
     56  NH2       22.1200   49.4130   39.0810 N.pl3  68  ARG68       0.1354
     57  N         28.4890   38.5340   37.1850 N.3    72  ALA72      -0.1245
     58  CA        27.3690   38.2540   36.3020 C.3    72  ALA72       0.1562
     59  C         26.9040   36.8210   36.5130 C.2    72  ALA72       0.2260
     60  O         25.7060   36.5400   36.5350 O.2    72  ALA72      -0.2867
     61  CB        27.7850   38.4510   34.8560 C.3    72  ALA72       0.0290
     62  N         24.8870   36.5980   39.6100 N.3    75  GLN75      -0.1231
     63  CA        23.6470   37.3310   39.4150 C.3    75  GLN75       0.1698
     64  C         22.7170   36.3870   38.6610 C.2    75  GLN75       0.2592
     65  O         21.5720   36.1540   39.0600 O.2    75  GLN75      -0.2718
     66  CB        23.9060   38.5980   38.6040 C.3    75  GLN75       0.0381
     67  CG        24.7030   39.6210   39.3700 C.3    75  GLN75       0.0905
     68  CD        25.0180   40.8390   38.5490 C.2    75  GLN75       0.2608
     69  OE1       24.1560   41.3730   37.8620 O.2    75  GLN75      -0.2717
     70  NE2       26.2570   41.3000   38.6240 N.am   75  GLN75      -0.0878
     71  N         23.2370   35.8240   37.5800 N.am   76  ILE76      -0.1980
     72  CA        22.4840   34.8840   36.7860 C.3    76  ILE76       0.1595
     73  C         22.0710   33.7110   37.6720 C.2    76  ILE76       0.2287
     74  O         20.8840   33.3980   37.7870 O.2    76  ILE76      -0.2864
     75  CB        23.3320   34.3870   35.5990 C.3    76  ILE76       0.0276
     76  CG1       23.5910   35.5570   34.6410 C.3    76  ILE76       0.0022
     77  CG2       22.6260   33.2260   34.8830 C.3    76  ILE76       0.0022
     78  CD1       24.4170   35.2200   33.4090 C.3    76  ILE76       0.0001
     79  N         19.3480   34.7970   39.9910 N.3    79  LEU79      -0.1231
     80  CA        18.1110   35.0590   39.2560 C.3    79  LEU79       0.1693
     81  C         17.4870   33.7410   38.8170 C.2    79  LEU79       0.2591
     82  O         16.3250   33.4760   39.1080 O.2    79  LEU79      -0.2718
     83  CB        18.3610   35.9260   38.0120 C.3    79  LEU79       0.0284
     84  CG        18.1470   37.4370   38.1230 C.3    79  LEU79       0.0019
     85  CD1       16.9170   37.7150   38.9560 C.3    79  LEU79       0.0001
     86  CD2       19.3160   38.0850   38.7590 C.3    79  LEU79       0.0001
     87  N         18.2660   32.9140   38.1240 N.am   80  LYS80      -0.1980
     88  CA        17.7720   31.6240   37.6490 C.3    80  LYS80       0.1596
     89  C         17.1120   30.7760   38.7250 C.2    80  LYS80       0.2287
     90  O         16.0000   30.2890   38.5440 O.2    80  LYS80      -0.2864
     91  CB        18.8970   30.8150   37.0120 C.3    80  LYS80       0.0298
     92  CG        19.5070   31.4680   35.7890 C.3    80  LYS80       0.0038
     93  CD        20.3560   30.4740   35.0110 C.3    80  LYS80       0.0206
     94  CE        19.5100   29.3470   34.4420 C.3    80  LYS80       0.1093
     95  NZ        20.3040   28.4900   33.5250 N.3    80  LYS80      -0.1314
     96  N         11.7010   32.9870   24.6320 N.3   230  PRO230     -0.2102
     97  CA        13.1420   32.7750   24.7600 C.3   230  PRO230      0.1504
     98  C         13.7050   33.0320   26.1700 C.2   230  PRO230      0.2575
     99  O         14.5400   32.2540   26.6610 O.2   230  PRO230     -0.2718
    100  CB        13.7120   33.7180   23.7060 C.3   230  PRO230      0.0282
    101  CG        12.6590   33.6520   22.6210 C.3   230  PRO230      0.0208
    102  CD        11.3890   33.7810   23.4300 C.3   230  PRO230      0.0893
    103  N         13.2570   34.1050   26.8240 N.am  231  LEU231     -0.1980
    104  CA        13.7420   34.4130   28.1690 C.3   231  LEU231      0.1596
    105  C         13.3360   33.3550   29.1980 C.2   231  LEU231      0.2287
    106  O         14.1270   32.9960   30.0630 O.2   231  LEU231     -0.2864
    107  CB        13.2540   35.7920   28.6220 C.3   231  LEU231      0.0297
    108  CG        13.5950   36.1530   30.0760 C.3   231  LEU231      0.0022
    109  CD1       15.1100   36.0880   30.2930 C.3   231  LEU231      0.0001
    110  CD2       13.0520   37.5340   30.4110 C.3   231  LEU231      0.0001
    111  N         15.4400   30.3870   28.7520 N.3   234  GLU234     -0.1231
    112  CA        16.7880   30.6690   29.2280 C.3   234  GLU234      0.1699
    113  C         16.8680   30.6180   30.7520 C.2   234  GLU234      0.2592
    114  O         17.7430   29.9670   31.3170 O.2   234  GLU234     -0.2718
    115  CB        17.2210   32.0530   28.7370 C.3   234  GLU234      0.0402
    116  CG        18.6970   32.1720   28.4350 C.3   234  GLU234      0.1161
    117  CD        19.1160   33.5920   28.1060 C.2   234  GLU234      0.3649
    118  OE1       19.3150   34.3730   29.0600 O.co2 234  GLU234     -0.2457
    119  OE2       19.2360   33.9280   26.8990 O.co2 234  GLU234     -0.2457
    120  N         15.9410   31.3060   31.4090 N.am  235  VAL235     -0.1980
    121  CA        15.9120   31.3690   32.8620 C.3   235  VAL235      0.1595
    122  C         15.6070   30.0370   33.5450 C.2   235  VAL235      0.2287
    123  O         16.2340   29.6970   34.5450 O.2   235  VAL235     -0.2864
    124  CB        14.8970   32.4500   33.3330 C.3   235  VAL235      0.0276
    125  CG1       14.5760   32.2830   34.8110 C.3   235  VAL235      0.0022
    126  CG2       15.4760   33.8280   33.0920 C.3   235  VAL235      0.0022
    127  N         20.3360   24.6270   31.0230 N.3   239  GLU239     -0.1231
    128  CA        21.5960   25.1650   30.5220 C.3   239  GLU239      0.1699
    129  C         22.5450   25.4520   31.6840 C.2   239  GLU239      0.2592
    130  O         22.1960   26.1760   32.6190 O.2   239  GLU239     -0.2718
    131  CB        21.3330   26.4560   29.7480 C.3   239  GLU239      0.0402
    132  CG        22.5820   27.0890   29.1730 C.3   239  GLU239      0.1161
    133  CD        23.1610   26.2900   28.0280 C.2   239  GLU239      0.3649
    134  OE1       24.2920   26.6040   27.6010 O.co2 239  GLU239     -0.2457
    135  OE2       22.4790   25.3560   27.5530 O.co2 239  GLU239     -0.2457
    136  N         23.7470   24.8850   31.6160 N.am  240  VAL240     -0.1980
    137  CA        24.7500   25.0600   32.6640 C.3   240  VAL240      0.1595
    138  C         25.1660   26.5200   32.8800 C.2   240  VAL240      0.2287
    139  O         24.7810   27.1400   33.8730 O.2   240  VAL240     -0.2864
    140  CB        26.0020   24.2090   32.3580 C.3   240  VAL240      0.0276
    141  CG1       26.5230   24.5310   30.9610 C.3   240  VAL240      0.0022
    142  CG2       27.0700   24.4460   33.4190 C.3   240  VAL240      0.0022
@<TRIPOS>BOND
     1   101   102    1
     2   101   100    1
     3   102    96    1
     4   100    97    1
     5    96    97    1
     6    97    98    1
     7    98    99    2
     8    98   103   am
     9   103   104    1
    10   119   117   ar
    11   135   133   ar
    12   134   133   ar
    13   133   132    1
    14   117   116    1
    15   117   118   ar
    16   104   107    1
    17   104   105    1
    18   116   115    1
    19   107   108    1
    20   115   112    1
    21   111   112    1
    22    17    15   am
    23    16    15    2
    24   132   131    1
    25   105   106    2
    26   112   113    1
    27    15    14    1
    28   131   128    1
    29   108   109    1
    30   108   110    1
    31   128   127    1
    32   128   129    1
    33    14    13    1
    34   113   114    2
    35   113   120   am
    36   141   140    1
    37   120   121    1
    38   136   129   am
    39   136   137    1
    40   129   130    2
    41    13    10    1
    42   140   137    1
    43   140   142    1
    44   137   138    1
    45   121   124    1
    46   121   122    1
    47   138   139    2
    48   126   124    1
    49    10     9    1
    50    10    11    1
    51   124   125    1
    52     8     6    1
    53    78    76    1
    54    95    94    1
    55   122   123    2
    56     9     3   am
    57    25    23    1
    58    34    33    1
    59     5     7    1
    60     5     6    1
    61     5     2    1
    62    11    12    2
    63    94    93    1
    64     3     2    1
    65     3     4    2
    66    76    75    1
    67     1     2    1
    68    61    58    1
    69    77    75    1
    70    93    92    1
    71    24    22    1
    72    23    22    1
    73    33    32    1
    74    22    19    1
    75    75    72    1
    76    92    91    1
    77    32    31    1
    78    58    59    1
    79    58    57    1
    80    59    60    2
    81    72    71    1
    82    72    73    1
    83    19    20    1
    84    19    18    1
    85    91    88    1
    86    20    21    2
    87    31    30    1
    88    71    64   am
    89    88    87    1
    90    88    89    1
    91    73    74    2
    92    69    68    2
    93    83    84    1
    94    83    80    1
    95    84    86    1
    96    84    85    1
    97    87    81   am
    98    30    27    1
    99    90    89    2
   100    68    70   am
   101    68    67    1
   102    66    67    1
   103    66    63    1
   104    64    65    2
   105    64    63    1
   106    53    52    1
   107    53    54    2
   108    81    82    2
   109    81    80    1
   110    56    54    1
   111    52    51    1
   112    80    79    1
   113    63    62    1
   114    51    50    1
   115    54    55    1
   116    27    26    1
   117    27    28    1
   118    44    45   ar
   119    44    42   ar
   120    49    48    2
   121    45    43   ar
   122    50    47    1
   123    28    29    2
   124    47    48    1
   125    47    46    1
   126    42    40   ar
   127    43    41   ar
   128    38    37    2
   129    46    37   am
   130    40    41   ar
   131    40    39    1
   132    37    36    1
   133    39    36    1
   134    36    35    1
