@<TRIPOS>MOLECULE
tmp/3dr4C01.pdb
 101 97 0 0 0
SMALL
GASTEIGER

@<TRIPOS>ATOM
      1  N         -7.7660   27.0920  115.5860 N.3    26  THR26      -0.1203
      2  CA        -8.1650   27.7270  114.3020 C.3    26  THR26       0.1994
      3  C         -7.5230   27.1910  113.0310 C.2    26  THR26       0.2618
      4  O         -7.6790   27.8070  111.9770 O.2    26  THR26      -0.2717
      5  CB        -8.0190   29.2750  114.1860 C.3    26  THR26       0.1784
      6  OG1       -6.6290   29.5550  113.9650 O.3    26  THR26      -0.2211
      7  CG2       -8.4370   29.9390  115.4690 C.3    26  THR26       0.0376
      8  N         -6.8230   26.0660  113.1070 N.am   27  TRP27      -0.1961
      9  CA        -6.2820   25.4690  111.9090 C.3    27  TRP27       0.1771
     10  C         -7.3690   24.5050  111.4300 C.2    27  TRP27       0.2619
     11  O         -7.5190   23.3780  111.9240 O.2    27  TRP27      -0.2715
     12  CB        -5.0370   24.6900  112.2520 C.3    27  TRP27       0.0590
     13  CG        -4.0400   25.6470  112.6500 C.ar   27  TRP27       0.0006
     14  CD1       -3.6790   25.9330  113.9290 C.ar   27  TRP27       0.0946
     15  CD2       -3.4050   26.6270  111.8210 C.ar   27  TRP27       0.0152
     16  NE1       -2.7680   26.9540  113.9440 N.ar   27  TRP27      -0.2442
     17  CE2       -2.5950   27.4160  112.6640 C.ar   27  TRP27       0.0810
     18  CE3       -3.4070   26.8930  110.4500 C.ar   27  TRP27       0.0012
     19  CZ2       -1.8200   28.4760  112.1780 C.ar   27  TRP27       0.0191
     20  CZ3       -2.5680   27.9040  109.9520 C.ar   27  TRP27       0.0001
     21  CH2       -1.8270   28.7140  110.8220 C.ar   27  TRP27       0.0015
     22  N         -8.1470   24.9890  110.4690 N.am   28  ILE28      -0.1963
     23  CA        -9.2630   24.2020  109.9650 C.3    28  ILE28       0.1727
     24  C         -9.1500   23.9560  108.4670 C.2    28  ILE28       0.2616
     25  O         -9.9500   23.1880  107.9330 O.2    28  ILE28      -0.2715
     26  CB       -10.5940   24.9090  110.2760 C.3    28  ILE28       0.0290
     27  CG1      -10.5920   26.2910  109.6210 C.3    28  ILE28       0.0022
     28  CG2      -10.9530   24.9740  111.8130 C.3    28  ILE28       0.0023
     29  CD1      -12.0320   26.9190  109.6260 C.3    28  ILE28       0.0001
     30  N         -8.1470   24.5410  107.7970 N.am   29  SER29      -0.1950
     31  CA        -7.9610   24.2840  106.3560 C.3    29  SER29       0.1924
     32  C         -7.0460   23.0650  106.1390 C.2    29  SER29       0.2314
     33  O         -6.8550   22.2300  107.0200 O.2    29  SER29      -0.2863
     34  CB        -7.3220   25.5060  105.6750 C.3    29  SER29       0.2116
     35  OG        -5.9740   25.6130  106.1410 O.3    29  SER29      -0.2180
     36  N         -4.0800   23.2360  106.1130 N.3    31  VAL31      -0.1245
     37  CA        -2.8320   23.5900  106.7970 C.3    31  VAL31       0.1561
     38  C         -3.1240   23.1650  108.2490 C.2    31  VAL31       0.2260
     39  O         -4.0790   23.6640  108.8640 O.2    31  VAL31      -0.2867
     40  CB        -2.6430   25.1310  106.7770 C.3    31  VAL31       0.0252
     41  CG1       -1.6250   25.5270  107.7940 C.3    31  VAL31       0.0019
     42  CG2       -2.2090   25.6290  105.3940 C.3    31  VAL31       0.0019
     43  N         -1.6140   21.5970   94.0890 N.3   210  GLN210     -0.1245
     44  CA        -1.7540   22.5190   92.9790 C.3   210  GLN210      0.1566
     45  C         -0.5210   22.5650   92.1300 C.2   210  GLN210      0.2260
     46  O         -0.3500   23.4760   91.3000 O.2   210  GLN210     -0.2867
     47  CB        -2.1060   23.9050   93.4990 C.3   210  GLN210      0.0367
     48  CG        -3.4980   23.9750   94.1400 C.3   210  GLN210      0.0905
     49  CD        -4.5860   24.1030   93.0740 C.2   210  GLN210      0.2608
     50  OE1       -4.4190   23.5670   91.9930 O.2   210  GLN210     -0.2717
     51  NE2       -5.6880   24.7740   93.3800 N.am  210  GLN210     -0.0878
     52  N          2.3720   23.2720   92.9470 N.3   212  MET212     -0.1245
     53  CA         3.2410   24.3960   93.3190 C.3   212  MET212      0.1570
     54  C          4.5880   23.9490   93.9030 C.2   212  MET212      0.2261
     55  O          4.7020   23.0040   94.6670 O.2   212  MET212     -0.2867
     56  CB         2.5860   25.2750   94.3850 C.3   212  MET212      0.0387
     57  CG         3.1900   26.6650   94.5140 C.3   212  MET212      0.0595
     58  SD         2.2760   27.7920   95.6410 S.3   212  MET212     -0.1393
     59  CE         2.7990   27.0520   97.2430 C.3   212  MET212      0.0692
     60  N          6.9770   30.4930   96.1890 N.3   217  ARG217     -0.1231
     61  CA         5.5850   30.8910   96.3410 C.3   217  ARG217      0.1694
     62  C          4.9130   31.2060   95.0260 C.2   217  ARG217      0.2592
     63  O          5.3870   32.0900   94.3140 O.2   217  ARG217     -0.2718
     64  CB         5.4320   32.1160   97.2720 C.3   217  ARG217      0.0321
     65  CG         3.9830   32.3960   97.7450 C.3   217  ARG217      0.0489
     66  CD         3.2940   31.2490   98.4900 C.3   217  ARG217      0.2205
     67  NE         3.9760   30.9770   99.7480 N.pl3 217  ARG217     -0.0865
     68  CZ         3.6480   30.0120  100.5960 C.cat 217  ARG217      0.5346
     69  NH1        4.3960   29.8740  101.6590 N.pl3 217  ARG217      0.1354
     70  NH2        2.5870   29.2230  100.4520 N.pl3 217  ARG217      0.1354
     71  N          3.7810   30.5450   94.7430 N.am  218  TYR218     -0.1976
     72  CA         3.0390   30.7740   93.5000 C.3   218  TYR218      0.1639
     73  C          3.8620   30.5370   92.2230 C.2   218  TYR218      0.2290
     74  O          3.5750   31.1170   91.1810 O.2   218  TYR218     -0.2864
     75  CB         2.3360   32.1520   93.4210 C.3   218  TYR218      0.0560
     76  CG         1.4970   32.5340   94.6320 C.ar  218  TYR218     -0.0198
     77  CD1        0.8480   31.5420   95.4120 C.ar  218  TYR218     -0.0009
     78  CD2        1.3170   33.9040   94.9720 C.ar  218  TYR218     -0.0009
     79  CE1        0.0440   31.9080   96.5610 C.ar  218  TYR218      0.0417
     80  CE2        0.5180   34.2820   96.0700 C.ar  218  TYR218      0.0417
     81  CZ        -0.1140   33.2970   96.8630 C.ar  218  TYR218      0.1957
     82  OH        -0.8880   33.7430   97.9080 O.3   218  TYR218     -0.2866
     83  N         -6.3560   20.7140   93.3370 N.3   226  ASN226     -0.1240
     84  CA        -6.5490   21.0060   94.7720 C.3   226  ASN226      0.1653
     85  C         -7.2040   19.7420   95.3590 C.2   226  ASN226      0.2266
     86  O         -8.4430   19.6020   95.3990 O.2   226  ASN226     -0.2867
     87  CB        -7.4370   22.2430   95.0040 C.3   226  ASN226      0.1155
     88  CG        -7.6220   22.4840   96.4870 C.2   226  ASN226      0.2627
     89  OD1       -7.2280   21.6060   97.2620 O.2   226  ASN226     -0.2716
     90  ND2       -8.1450   23.6370   96.8940 N.am  226  ASN226     -0.0877
     91  N         -6.2430   18.3800   98.4060 N.3   228  ARG228     -0.1245
     92  CA        -5.8050   18.3310   99.8000 C.3   228  ARG228      0.1563
     93  C         -6.9240   17.9510  100.7450 C.2   228  ARG228      0.2260
     94  O         -8.0240   18.4540  100.5620 O.2   228  ARG228     -0.2867
     95  CB        -5.2830   19.7070  100.2590 C.3   228  ARG228      0.0307
     96  CG        -3.9060   20.0020   99.7360 C.3   228  ARG228      0.0489
     97  CD        -3.5650   21.5080   99.8070 C.3   228  ARG228      0.2205
     98  NE        -4.5640   22.5180   99.4160 N.pl3 228  ARG228     -0.0865
     99  CZ        -4.2910   23.5470   98.6090 C.cat 228  ARG228      0.5346
    100  NH1       -5.1900   24.4930   98.3280 N.pl3 228  ARG228      0.1354
    101  NH2       -3.0870   23.6310   98.0500 N.pl3 228  ARG228      0.1354
@<TRIPOS>BOND
     1    74    73    2
     2    46    45    2
     3    50    49    2
     4    45    44    1
     5    73    72    1
     6    52    53    1
     7    44    47    1
     8    44    43    1
     9    49    51   am
    10    49    48    1
    11    53    54    1
    12    53    56    1
    13    83    84    1
    14    75    72    1
    15    75    76    1
    16    47    48    1
    17    72    71    1
    18    54    55    2
    19    63    62    2
    20    56    57    1
    21    57    58    1
    22    76    78   ar
    23    76    77   ar
    24    71    62   am
    25    84    87    1
    26    84    85    1
    27    78    80   ar
    28    87    88    1
    29    62    61    1
    30    85    86    2
    31    77    79   ar
    32    58    59    1
    33    80    81   ar
    34    60    61    1
    35    61    64    1
    36    88    90   am
    37    88    89    2
    38    79    81   ar
    39    81    82    1
    40    64    65    1
    41    65    66    1
    42   101    99    1
    43   100    99    1
    44    91    92    1
    45    66    67    1
    46    99    98    2
    47    98    97    1
    48    96    97    1
    49    96    95    1
    50    67    68    2
    51    92    95    1
    52    92    93    1
    53    70    68    1
    54    94    93    2
    55    68    69    1
    56    42    40    1
    57    34    35    1
    58    34    31    1
    59    36    37    1
    60    32    31    1
    61    32    33    2
    62    31    30    1
    63    40    37    1
    64    40    41    1
    65    37    38    1
    66    30    24   am
    67    25    24    2
    68    38    39    2
    69    24    23    1
    70    27    29    1
    71    27    26    1
    72    20    18   ar
    73    20    21   ar
    74    23    26    1
    75    23    22    1
    76    26    28    1
    77    18    15   ar
    78    22    10   am
    79    21    19   ar
    80    10     9    1
    81    10    11    2
    82    15    13   ar
    83    15    17   ar
    84     9    12    1
    85     9     8    1
    86     4     3    2
    87    19    17   ar
    88    12    13    1
    89    13    14   ar
    90    17    16   ar
    91     3     8   am
    92     3     2    1
    93    14    16   ar
    94     6     5    1
    95     5     2    1
    96     5     7    1
    97     2     1    1
