@<TRIPOS>MOLECULE
tmp/3dr4C00.pdb
 215 205 0 0 0
SMALL
GASTEIGER

@<TRIPOS>ATOM
      1  N        -30.0380    1.4840  109.1960 N.3     5  SER5       -0.1202
      2  CA       -29.2730    2.0580  108.0660 C.3     5  SER5        0.2020
      3  C        -28.3110    1.0200  107.5280 C.2     5  SER5        0.2619
      4  O        -27.8090    0.1910  108.2730 O.2     5  SER5       -0.2717
      5  CB       -28.4360    3.2890  108.4510 C.3     5  SER5        0.2103
      6  OG       -29.3170    4.3540  108.7110 O.3     5  SER5       -0.2182
      7  N        -28.0150    1.0820  106.2430 N.am    6  VAL6       -0.1965
      8  CA       -27.1490    0.0610  105.7090 C.3     6  VAL6        0.1727
      9  C        -25.7700    0.2940  106.2500 C.2     6  VAL6        0.2616
     10  O        -24.9780   -0.6690  106.3990 O.2     6  VAL6       -0.2715
     11  CB       -27.2180    0.0650  104.1700 C.3     6  VAL6        0.0290
     12  CG1      -26.5180    1.2730  103.5780 C.3     6  VAL6        0.0023
     13  CG2      -26.9360   -1.2960  103.5870 C.3     6  VAL6        0.0023
     14  N        -25.4850    1.5450  106.6040 N.am    7  ALA7       -0.1963
     15  CA       -24.1500    1.8710  107.1120 C.3     7  ALA7        0.1728
     16  C        -24.2760    3.1100  107.9720 C.2     7  ALA7        0.2616
     17  O        -25.2890    3.8080  107.9180 O.2     7  ALA7       -0.2715
     18  CB       -23.1640    2.1390  105.9740 C.3     7  ALA7        0.0334
     19  N        -23.2570    3.3530  108.7930 N.am    8  ALA8       -0.1964
     20  CA       -23.2580    4.5190  109.7020 C.3     8  ALA8        0.1713
     21  C        -21.8680    4.6220  110.3110 C.2     8  ALA8        0.2458
     22  O        -21.2570    3.5940  110.5560 O.2     8  ALA8       -0.2730
     23  CB       -24.2310    4.3070  110.8400 C.3     8  ALA8        0.0333
     24  N        -21.3720    5.8320  110.5660 N.am    9  PRO9       -0.2727
     25  CA       -20.0610    6.0060  111.2030 C.3     9  PRO9        0.1402
     26  C        -20.2280    5.7040  112.6740 C.2     9  PRO9        0.2269
     27  O        -21.3220    5.8030  113.1900 O.2     9  PRO9       -0.2865
     28  CB       -19.8390    7.5140  111.1610 C.3     9  PRO9        0.0296
     29  CG       -21.0670    8.1300  110.5330 C.3     9  PRO9        0.0237
     30  CD       -22.1310    7.0920  110.4630 C.3     9  PRO9        0.0939
     31  N        -11.0600   13.0080   98.7710 N.3    56  ASN56      -0.1225
     32  CA       -11.9710   11.8520   98.6700 C.3    56  ASN56       0.1785
     33  C        -11.2800   10.6580   97.9860 C.2    56  ASN56       0.2598
     34  O        -10.1440   10.7750   97.4820 O.2    56  ASN56      -0.2718
     35  CB       -13.3740   12.1850   98.1350 C.3    56  ASN56       0.1169
     36  CG       -13.3500   12.8200   96.7080 C.2    56  ASN56       0.2627
     37  OD1      -12.9580   12.1770   95.7280 O.2    56  ASN56      -0.2716
     38  ND2      -13.7790   14.0830   96.6230 N.am   56  ASN56      -0.0877
     39  N        -11.9560    9.5090   97.9530 N.am   57  GLY57      -0.1942
     40  CA       -11.3360    8.3400   97.3120 C.3    57  GLY57       0.2014
     41  C        -11.3100    8.4140   95.7780 C.2    57  GLY57       0.2639
     42  O        -10.4660    7.7940   95.1220 O.2    57  GLY57      -0.2714
     43  N        -12.1850    9.2150   95.1740 N.am   58  THR58      -0.1950
     44  CA       -12.1880    9.3530   93.7140 C.3    58  THR58       0.1897
     45  C        -10.9990   10.2110   93.3570 C.2    58  THR58       0.2313
     46  O        -10.3160    9.9320   92.3860 O.2    58  THR58      -0.2863
     47  CB       -13.4730   10.1210   93.3240 C.3    58  THR58       0.1794
     48  OG1      -14.5640    9.3100   93.7760 O.3    58  THR58      -0.2208
     49  CG2      -13.5870   10.3300   91.7690 C.3    58  THR58       0.0378
     50  N         -7.9330    8.2230   93.5460 N.3    61  LEU61      -0.1245
     51  CA        -7.6580    7.4590   92.3530 C.3    61  LEU61       0.1561
     52  C         -7.0780    8.3160   91.1970 C.2    61  LEU61       0.2260
     53  O         -6.1120    7.9690   90.5170 O.2    61  LEU61      -0.2867
     54  CB        -8.9630    6.7840   91.9170 C.3    61  LEU61       0.0270
     55  CG        -9.3370    5.5420   92.7310 C.3    61  LEU61       0.0019
     56  CD1      -10.8170    5.1470   92.5170 C.3    61  LEU61       0.0001
     57  CD2       -8.4100    4.4070   92.2450 C.3    61  LEU61       0.0001
     58  N        -17.8620   -2.7320   89.7990 N.3    82  THR82      -0.1203
     59  CA       -17.1540   -1.8830   90.7640 C.3    82  THR82       0.1994
     60  C        -17.9130   -0.6000   90.9060 C.2    82  THR82       0.2617
     61  O        -18.8690   -0.3760   90.1580 O.2    82  THR82      -0.2717
     62  CB       -15.7060   -1.5260   90.2450 C.3    82  THR82       0.1784
     63  OG1      -15.0360   -0.7620   91.2570 O.3    82  THR82      -0.2211
     64  CG2      -15.7140   -0.6720   88.9670 C.3    82  THR82       0.0376
     65  N        -17.4900    0.2720   91.8200 N.am   83  TYR83      -0.1975
     66  CA       -18.0680    1.6240   91.9000 C.3    83  TYR83       0.1639
     67  C        -17.5080    2.4890   90.7180 C.2    83  TYR83       0.2290
     68  O        -16.3350    2.3680   90.3450 O.2    83  TYR83      -0.2864
     69  CB       -17.6730    2.2560   93.2390 C.3    83  TYR83       0.0560
     70  CG       -18.3540    3.5530   93.4980 C.ar   83  TYR83      -0.0198
     71  CD1      -19.7440    3.6110   93.5660 C.ar   83  TYR83      -0.0009
     72  CD2      -17.6090    4.7200   93.5840 C.ar   83  TYR83      -0.0009
     73  CE1      -20.3840    4.7940   93.8680 C.ar   83  TYR83       0.0417
     74  CE2      -18.2380    5.9220   93.7740 C.ar   83  TYR83       0.0417
     75  CZ       -19.6080    5.9530   93.9920 C.ar   83  TYR83       0.1957
     76  OH       -20.1550    7.1780   94.2870 O.3    83  TYR83      -0.2866
     77  N        -16.3470    5.3510   90.1190 N.3    85  ALA85      -0.1231
     78  CA       -15.1130    6.1240   90.2700 C.3    85  ALA85       0.1694
     79  C        -13.8800    5.3190   89.7890 C.2    85  ALA85       0.2592
     80  O        -12.9430    5.9390   89.2960 O.2    85  ALA85      -0.2718
     81  CB       -14.9490    6.5390   91.7150 C.3    85  ALA85       0.0304
     82  N        -13.8580    3.9870   89.9380 N.am   86  SER86      -0.1952
     83  CA       -12.7180    3.2290   89.4550 C.3    86  SER86       0.1924
     84  C        -12.4990    3.5610   87.9940 C.2    86  SER86       0.2314
     85  O        -11.3610    3.7880   87.5850 O.2    86  SER86      -0.2863
     86  CB       -13.0030    1.7290   89.5820 C.3    86  SER86       0.2116
     87  OG       -13.2710    1.4510   90.9530 O.3    86  SER86      -0.2180
     88  N         -9.9070   -4.2550   92.3060 N.3   128  VAL128     -0.1245
     89  CA       -10.7780   -3.5460   93.2300 C.3   128  VAL128      0.1561
     90  C        -11.1580   -4.4560   94.3820 C.2   128  VAL128      0.2260
     91  O        -11.6640   -5.5170   94.1340 O.2   128  VAL128     -0.2867
     92  CB       -12.0510   -2.9930   92.5300 C.3   128  VAL128      0.0252
     93  CG1      -12.8980   -2.1860   93.5400 C.3   128  VAL128      0.0019
     94  CG2      -11.6870   -1.9770   91.3590 C.3   128  VAL128      0.0019
     95  N        -13.4820   -5.4450   96.5790 N.3   130  LEU130     -0.1245
     96  CA       -14.8320   -5.1000   96.9770 C.3   130  LEU130      0.1561
     97  C        -15.2760   -5.6680   98.3170 C.2   130  LEU130      0.2260
     98  O        -15.0570   -6.8470   98.6320 O.2   130  LEU130     -0.2867
     99  CB       -15.8190   -5.5780   95.9020 C.3   130  LEU130      0.0270
    100  CG       -15.8270   -4.8550   94.5340 C.3   130  LEU130      0.0019
    101  CD1      -16.8330   -5.5440   93.5310 C.3   130  LEU130      0.0001
    102  CD2      -16.2810   -3.4500   94.7760 C.3   130  LEU130      0.0001
    103  N         -7.5250   -0.5050   94.0700 N.3   154  ASP154     -0.1239
    104  CA        -8.5740    0.4160   94.5130 C.3   154  ASP154      0.1674
    105  C         -9.0830   -0.2530   95.8150 C.2   154  ASP154      0.2266
    106  O         -9.9270   -1.2030   95.7900 O.2   154  ASP154     -0.2867
    107  CB        -9.7360    0.5150   93.5240 C.3   154  ASP154      0.1410
    108  CG       -10.8180    1.4620   94.0500 C.2   154  ASP154      0.3668
    109  OD1      -10.6490    1.9340   95.2180 O.co2 154  ASP154     -0.2456
    110  OD2      -11.7450    1.7990   93.2510 O.co2 154  ASP154     -0.2456
    111  N        -10.6310    1.1880   98.3100 N.3   156  ALA156     -0.1231
    112  CA       -11.6640    2.0260   98.9050 C.3   156  ALA156      0.1694
    113  C        -12.4190    1.3300  100.0460 C.2   156  ALA156      0.2591
    114  O        -12.6690    1.9150  101.1030 O.2   156  ALA156     -0.2718
    115  CB       -12.6760    2.4830   97.8210 C.3   156  ALA156      0.0304
    116  N        -12.8460    0.0900   99.7850 N.am  157  GLU157     -0.1979
    117  CA       -13.7110   -0.6410  100.7080 C.3   157  GLU157      0.1602
    118  C        -12.9990   -1.6580  101.5950 C.2   157  GLU157      0.2287
    119  O        -13.6850   -2.5190  102.1450 O.2   157  GLU157     -0.2864
    120  CB       -14.6970   -1.4220   99.8150 C.3   157  GLU157      0.0415
    121  CG       -15.6100   -0.4560   98.9650 C.3   157  GLU157      0.1163
    122  CD       -16.5260   -1.1560   97.9430 C.2   157  GLU157      0.3649
    123  OE1      -16.7530   -2.3940   98.1100 O.co2 157  GLU157     -0.2457
    124  OE2      -17.0380   -0.4270   97.0240 O.co2 157  GLU157     -0.2457
    125  N        -10.9800    5.0900  100.5770 N.3   178  SER178     -0.1217
    126  CA       -12.0030    6.1260  100.6880 C.3   178  SER178      0.1889
    127  C        -12.4270    6.2100  102.1410 C.2   178  SER178      0.2288
    128  O        -12.4920    5.1680  102.7800 O.2   178  SER178     -0.2866
    129  CB       -13.2590    5.6990   99.9340 C.3   178  SER178      0.2089
    130  OG       -14.3130    6.5490  100.3890 O.3   178  SER178     -0.2183
    131  N        -15.3630    7.8390  103.1310 N.3   180  PHE180     -0.1227
    132  CA       -16.7050    8.4330  103.1320 C.3   180  PHE180      0.1736
    133  C        -17.4530    8.0700  104.4330 C.2   180  PHE180      0.2596
    134  O        -17.0090    7.1960  105.1780 O.2   180  PHE180     -0.2718
    135  CB       -17.4650    7.9700  101.8730 C.3   180  PHE180      0.0547
    136  CG       -18.8870    8.4610  101.8360 C.ar  180  PHE180     -0.0202
    137  CD1      -19.1430    9.8240  101.8100 C.ar  180  PHE180     -0.0042
    138  CD2      -19.9630    7.5660  101.8660 C.ar  180  PHE180     -0.0042
    139  CE1      -20.4690   10.2690  101.7990 C.ar  180  PHE180     -0.0003
    140  CE2      -21.2930    8.0070  101.9040 C.ar  180  PHE180     -0.0003
    141  CZ       -21.5450    9.3620  101.8380 C.ar  180  PHE180     -0.0000
    142  N        -18.5830    8.7150  104.6960 N.am  181  GLY181     -0.1942
    143  CA       -19.3130    8.4900  105.9350 C.3   181  GLY181      0.2014
    144  C        -19.7310    7.0360  106.2200 C.2   181  GLY181      0.2638
    145  O        -19.9110    6.6650  107.3730 O.2   181  GLY181     -0.2714
    146  N        -19.8930    6.1980  105.2050 N.am  182  ASN182     -0.1972
    147  CA       -20.3120    4.7990  105.4330 C.3   182  ASN182      0.1688
    148  C        -19.0960    3.8670  105.5870 C.2   182  ASN182      0.2292
    149  O        -19.2390    2.6350  105.6760 O.2   182  ASN182     -0.2864
    150  CB       -21.1900    4.3230  104.2460 C.3   182  ASN182      0.1181
    151  CG       -20.4510    4.3140  102.9090 C.2   182  ASN182      0.2629
    152  OD1      -19.2550    4.6270  102.8210 O.2   182  ASN182     -0.2716
    153  ND2      -21.1730    3.9660  101.8470 N.am  182  ASN182     -0.0877
    154  N        -15.7950   11.7200  106.9740 N.3   188  GLY188     -0.1210
    155  CA       -16.9440   12.4700  106.4360 C.3   188  GLY188      0.1956
    156  C        -16.8260   12.2740  104.9270 C.2   188  GLY188      0.2612
    157  O        -17.5820   11.5170  104.3180 O.2   188  GLY188     -0.2717
    158  N        -15.8500   12.9580  104.3350 N.am  189  GLU189     -0.1965
    159  CA       -15.4670   12.7300  102.9330 C.3   189  GLU189      0.1733
    160  C        -13.9310   12.7140  103.0670 C.2   189  GLU189      0.2616
    161  O        -13.4030   13.5660  103.7900 O.2   189  GLU189     -0.2715
    162  CB       -15.8580   13.8600  101.9480 C.3   189  GLU189      0.0429
    163  CG       -17.3180   13.8960  101.5770 C.3   189  GLU189      0.1163
    164  CD       -17.7010   12.9730  100.4280 C.2   189  GLU189      0.3649
    165  OE1      -16.8780   12.2090   99.8850 O.co2 189  GLU189     -0.2457
    166  OE2      -18.8690   13.0480  100.0210 O.co2 189  GLU189     -0.2457
    167  N        -13.2380   11.8460  102.3300 N.am  190  GLY190     -0.1955
    168  CA       -11.7620   11.7920  102.4190 C.3   190  GLY190      0.1869
    169  C        -11.1700   10.6010  101.6800 C.2   190  GLY190      0.2309
    170  O        -11.8440    9.6200  101.3770 O.2   190  GLY190     -0.2863
    171  N        -16.6400   -4.7250  104.7480 N.3   283  TRP283     -0.1241
    172  CA       -17.1810   -3.3710  104.7390 C.3   283  TRP283      0.1605
    173  C        -18.7310   -3.5630  104.6030 C.2   283  TRP283      0.2264
    174  O        -19.5300   -2.9130  105.2570 O.2   283  TRP283     -0.2867
    175  CB       -16.6320   -2.5830  103.5420 C.3   283  TRP283      0.0550
    176  CG       -17.4310   -1.3300  103.4190 C.ar  283  TRP283      0.0003
    177  CD1      -17.6590   -0.3790  104.3840 C.ar  283  TRP283      0.0946
    178  CD2      -18.2650   -0.9940  102.3170 C.ar  283  TRP283      0.0152
    179  NE1      -18.5540    0.5460  103.9220 N.ar  283  TRP283     -0.2442
    180  CE2      -18.9430    0.1960  102.6600 C.ar  283  TRP283      0.0810
    181  CE3      -18.4740   -1.5810  101.0560 C.ar  283  TRP283      0.0012
    182  CZ2      -19.8340    0.8270  101.7870 C.ar  283  TRP283      0.0191
    183  CZ3      -19.4070   -0.9980  100.2190 C.ar  283  TRP283      0.0001
    184  CH2      -20.1030    0.1700  100.5990 C.ar  283  TRP283      0.0015
    185  N        -32.6610   -0.4660  105.4430 N.3   310  GLU310     -0.1245
    186  CA       -31.9290    0.0650  104.2870 C.3   310  GLU310      0.1567
    187  C        -30.9780   -0.9840  103.7810 C.2   310  GLU310      0.2260
    188  O        -30.4240   -1.7440  104.5470 O.2   310  GLU310     -0.2867
    189  CB       -31.0790    1.2810  104.6720 C.3   310  GLU310      0.0388
    190  CG       -30.6210    2.0880  103.5080 C.3   310  GLU310      0.1160
    191  CD       -29.8270    3.3000  103.9430 C.2   310  GLU310      0.3649
    192  OE1      -29.2230    3.2270  105.0320 O.co2 310  GLU310     -0.2457
    193  OE2      -29.8020    4.3120  103.1930 O.co2 310  GLU310     -0.2457
    194  N        -28.4750   -2.0170   99.8700 N.3   312  ARG312     -0.1245
    195  CA       -27.9740   -1.4740   98.5940 C.3   312  ARG312      0.1563
    196  C        -27.7830   -2.6440   97.6470 C.2   312  ARG312      0.2260
    197  O        -27.5040   -3.7830   98.0630 O.2   312  ARG312     -0.2867
    198  CB       -26.5930   -0.7900   98.7260 C.3   312  ARG312      0.0307
    199  CG       -26.6610    0.5030   99.5130 C.3   312  ARG312      0.0489
    200  CD       -26.9630    1.7630   98.6740 C.3   312  ARG312      0.2205
    201  NE       -27.0580    3.0170   99.4730 N.pl3 312  ARG312     -0.0865
    202  CZ       -28.1190    3.3370  100.2300 C.cat 312  ARG312      0.5346
    203  NH1      -29.1690    2.5180  100.3430 N.pl3 312  ARG312      0.1354
    204  NH2      -28.1310    4.4680  100.9230 N.pl3 312  ARG312      0.1354
    205  N        -23.2560   -3.3790   92.6080 N.3   315  PHE315     -0.1241
    206  CA       -23.1820   -2.4340   91.4830 C.3   315  PHE315      0.1605
    207  C        -23.7080   -2.9070   90.1360 C.2   315  PHE315      0.2264
    208  O        -23.5110   -4.0710   89.7390 O.2   315  PHE315     -0.2867
    209  CB       -21.7130   -2.0380   91.2480 C.3   315  PHE315      0.0534
    210  CG       -21.0620   -1.5300   92.4950 C.ar  315  PHE315     -0.0203
    211  CD1      -21.4760   -0.3300   93.0490 C.ar  315  PHE315     -0.0042
    212  CD2      -20.1080   -2.2870   93.1580 C.ar  315  PHE315     -0.0042
    213  CE1      -20.9750    0.0980   94.2860 C.ar  315  PHE315     -0.0003
    214  CE2      -19.5010   -1.7960   94.3230 C.ar  315  PHE315     -0.0003
    215  CZ       -19.9660   -0.6310   94.9090 C.ar  315  PHE315     -0.0000
@<TRIPOS>BOND
     1    85    84    2
     2    84    83    1
     3    64    62    1
     4    80    79    2
     5    83    86    1
     6    83    82    1
     7    86    87    1
     8   208   207    2
     9    79    82   am
    10    79    78    1
    11    58    59    1
    12    77    78    1
    13   207   206    1
    14    61    60    2
    15    62    59    1
    16    62    63    1
    17    78    81    1
    18    68    67    2
    19    53    52    2
    20    67    66    1
    21    59    60    1
    22    60    65   am
    23    52    51    1
    24   209   206    1
    25   209   210    1
    26    94    92    1
    27   206   205    1
    28    49    47    1
    29    65    66    1
    30    66    69    1
    31    54    51    1
    32    54    55    1
    33    57    55    1
    34    88    89    1
    35    51    50    1
    36    46    45    2
    37   210   211   ar
    38   210   212   ar
    39    56    55    1
    40    92    89    1
    41    92    93    1
    42   211   213   ar
    43   212   214   ar
    44    89    90    1
    45    69    70    1
    46   110   108   ar
    47    47    44    1
    48    47    48    1
    49    45    44    1
    50    70    71   ar
    51    70    72   ar
    52   107   108    1
    53   107   104    1
    54   101   100    1
    55    71    73   ar
    56    72    74   ar
    57    44    43    1
    58    74    75   ar
    59    73    75   ar
    60    75    76    1
    61   108   109   ar
    62   103   104    1
    63    91    90    2
    64   213   215   ar
    65   214   215   ar
    66   104   105    1
    67   100   102    1
    68   100    99    1
    69    42    41    2
    70    43    41   am
    71    37    36    2
    72    41    40    1
    73   106   105    2
    74    99    96    1
    75    95    96    1
    76    38    36   am
    77    36    35    1
    78    96    97    1
    79   124   122   ar
    80    40    39    1
    81    34    33    2
    82   196   197    2
    83   196   195    1
    84   115   112    1
    85   122   123   ar
    86   122   121    1
    87    39    33   am
    88    33    32    1
    89    35    32    1
    90   111   112    1
    91    97    98    2
    92   195   198    1
    93   195   194    1
    94    32    31    1
    95   200   201    1
    96   200   199    1
    97   198   199    1
    98   112   113    1
    99   121   120    1
   100   201   202    2
   101   116   113   am
   102   116   117    1
   103   120   117    1
   104   165   164   ar
   105   129   130    1
   106   129   126    1
   107   166   164   ar
   108   113   114    2
   109   183   184   ar
   110   183   181   ar
   111   202   203    1
   112   202   204    1
   113   164   163    1
   114   125   126    1
   115   184   182   ar
   116   126   127    1
   117   117   118    1
   118   181   178   ar
   119   170   169    2
   120   163   162    1
   121   118   119    2
   122   169   168    1
   123   182   180   ar
   124   139   137   ar
   125   139   141   ar
   126   137   136   ar
   127   136   138   ar
   128   136   135    1
   129   141   140   ar
   130   153   151   am
   131   138   140   ar
   132   135   132    1
   133   162   159    1
   134   127   128    2
   135   178   180   ar
   136   178   176   ar
   137   167   168    1
   138   167   160   am
   139   180   179   ar
   140   152   151    2
   141   151   150    1
   142   159   160    1
   143   159   158    1
   144   160   161    2
   145   131   132    1
   146   132   133    1
   147   193   191   ar
   148   176   175    1
   149   176   177   ar
   150   190   191    1
   151   190   189    1
   152   175   172    1
   153    12    11    1
   154    13    11    1
   155   187   186    1
   156   187   188    2
   157   179   177   ar
   158   191   192   ar
   159    11     8    1
   160   150   147    1
   161   186   189    1
   162   186   185    1
   163   157   156    2
   164   158   156   am
   165   133   142   am
   166   133   134    2
   167   173   172    1
   168   173   174    2
   169   142   143    1
   170   172   171    1
   171   156   155    1
   172   146   147    1
   173   146   144   am
   174   147   148    1
   175   148   149    2
   176     8     7    1
   177     8     9    1
   178   143   144    1
   179    18    15    1
   180   144   145    2
   181     7     3   am
   182     9    10    2
   183     9    14   am
   184   155   154    1
   185    14    15    1
   186    15    16    1
   187     3     2    1
   188     3     4    2
   189    17    16    2
   190    16    19   am
   191     2     5    1
   192     2     1    1
   193     5     6    1
   194    19    20    1
   195    20    21    1
   196    20    23    1
   197    21    22    2
   198    21    24   am
   199    30    29    1
   200    30    24    1
   201    29    28    1
   202    24    25    1
   203    28    25    1
   204    25    26    1
   205    26    27    2
