@<TRIPOS>MOLECULE
tmp/3dr7A00.pdb
 134 130 0 0 0
SMALL
GASTEIGER

@<TRIPOS>ATOM
      1  N        -18.6560    1.1970   57.5120 N.3     5  SER5       -0.1202
      2  CA       -17.9470    1.7820   56.3770 C.3     5  SER5        0.2020
      3  C        -16.9060    0.7720   55.9370 C.2     5  SER5        0.2619
      4  O        -16.4340   -0.0210   56.7620 O.2     5  SER5       -0.2717
      5  CB       -17.2100    3.0440   56.8200 C.3     5  SER5        0.2103
      6  OG       -18.1480    4.0470   57.1140 O.3     5  SER5       -0.2182
      7  N        -16.5580    0.8230   54.6540 N.am    6  VAL6       -0.1965
      8  CA       -15.5810   -0.0740   54.0640 C.3     6  VAL6        0.1727
      9  C        -14.2020    0.1850   54.6680 C.2     6  VAL6        0.2616
     10  O        -13.4360   -0.7510   54.9670 O.2     6  VAL6       -0.2715
     11  CB       -15.7020   -0.0280   52.5460 C.3     6  VAL6        0.0290
     12  CG1      -15.1260    1.2330   51.8690 C.3     6  VAL6        0.0023
     13  CG2      -15.4310   -1.3190   51.8900 C.3     6  VAL6        0.0023
     14  N        -13.9660    1.4480   55.0060 N.am    7  ALA7       -0.1963
     15  CA       -12.6810    1.8360   55.5580 C.3     7  ALA7        0.1728
     16  C        -12.8180    3.0860   56.4140 C.2     7  ALA7        0.2616
     17  O        -13.8410    3.7940   56.3890 O.2     7  ALA7       -0.2715
     18  CB       -11.7240    2.1120   54.4000 C.3     7  ALA7        0.0334
     19  N        -11.7580    3.3640   57.1660 N.am    8  ALA8       -0.1964
     20  CA       -11.7990    4.5020   58.0680 C.3     8  ALA8        0.1713
     21  C        -10.4360    4.6310   58.7220 C.2     8  ALA8        0.2458
     22  O         -9.8050    3.6400   59.0410 O.2     8  ALA8       -0.2730
     23  CB       -12.8480    4.2960   59.1700 C.3     8  ALA8        0.0333
     24  N         -9.9770    5.8630   58.8970 N.am    9  PRO9       -0.2727
     25  CA        -8.7010    6.1330   59.5370 C.3     9  PRO9        0.1402
     26  C         -8.9010    5.8200   61.0310 C.2     9  PRO9        0.2269
     27  O         -9.9880    6.0380   61.5550 O.2     9  PRO9       -0.2865
     28  CB        -8.5510    7.6660   59.3550 C.3     9  PRO9        0.0296
     29  CG        -9.5070    8.0570   58.3010 C.3     9  PRO9        0.0237
     30  CD       -10.6210    7.0770   58.3730 C.3     9  PRO9        0.0939
     31  N         -5.9310    0.1220   40.3090 N.3    83  TYR83      -0.1241
     32  CA        -6.5870    1.4200   40.4240 C.3    83  TYR83       0.1605
     33  C         -6.0500    2.2760   39.2740 C.2    83  TYR83       0.2264
     34  O         -4.8910    2.1890   38.9040 O.2    83  TYR83      -0.2867
     35  CB        -6.2220    2.1090   41.7660 C.3    83  TYR83       0.0534
     36  CG        -6.8990    3.4310   41.9360 C.ar   83  TYR83      -0.0201
     37  CD1       -8.3010    3.5530   42.0240 C.ar   83  TYR83      -0.0009
     38  CD2       -6.1490    4.5580   42.1430 C.ar   83  TYR83      -0.0009
     39  CE1       -8.9100    4.8350   42.1450 C.ar   83  TYR83       0.0417
     40  CE2       -6.7330    5.8030   42.2300 C.ar   83  TYR83       0.0417
     41  CZ        -8.1100    5.9580   42.2610 C.ar   83  TYR83       0.1957
     42  OH        -8.6020    7.2700   42.4230 O.3    83  TYR83      -0.2866
     43  N          0.8090    1.1310   47.0280 N.3   156  ALA156     -0.1231
     44  CA        -0.2400    1.8250   47.7620 C.3   156  ALA156      0.1694
     45  C         -1.0680    0.9940   48.7360 C.2   156  ALA156      0.2591
     46  O         -1.5000    1.5560   49.7330 O.2   156  ALA156     -0.2718
     47  CB        -1.2000    2.5260   46.8410 C.3   156  ALA156      0.0304
     48  N         -1.3740   -0.2750   48.4500 N.am  157  GLU157     -0.1979
     49  CA        -2.3040   -0.9970   49.3280 C.3   157  GLU157      0.1602
     50  C         -1.5470   -1.9520   50.2710 C.2   157  GLU157      0.2287
     51  O         -2.1470   -2.7680   50.9780 O.2   157  GLU157     -0.2864
     52  CB        -3.2950   -1.7670   48.4220 C.3   157  GLU157      0.0415
     53  CG        -4.1030   -0.7750   47.5710 C.3   157  GLU157      0.1163
     54  CD        -5.0060   -1.3990   46.4620 C.2   157  GLU157      0.3649
     55  OE1       -5.1970   -2.6540   46.4440 O.co2 157  GLU157     -0.2457
     56  OE2       -5.5020   -0.5700   45.6530 O.co2 157  GLU157     -0.2457
     57  N          0.4050    5.2100   49.0640 N.3   178  SER178     -0.1217
     58  CA        -0.6860    6.2110   49.2140 C.3   178  SER178      0.1889
     59  C         -1.0300    6.2550   50.7020 C.2   178  SER178      0.2288
     60  O         -1.0150    5.1940   51.3520 O.2   178  SER178     -0.2866
     61  CB        -2.0250    5.7180   48.5980 C.3   178  SER178      0.2089
     62  OG        -3.0710    6.6490   48.9830 O.3   178  SER178     -0.2183
     63  N         -3.8900    8.0030   51.5420 N.3   180  PHE180     -0.1227
     64  CA        -5.2810    8.4900   51.4360 C.3   180  PHE180      0.1736
     65  C         -6.0780    7.9740   52.6520 C.2   180  PHE180      0.2596
     66  O         -5.7620    6.9290   53.2620 O.2   180  PHE180     -0.2718
     67  CB        -5.9330    7.9920   50.1370 C.3   180  PHE180      0.0547
     68  CG        -7.3450    8.4590   49.9700 C.ar  180  PHE180     -0.0202
     69  CD1       -7.6190    9.8240   49.9090 C.ar  180  PHE180     -0.0042
     70  CD2       -8.4030    7.5740   49.8960 C.ar  180  PHE180     -0.0042
     71  CE1       -8.9380   10.3010   49.8350 C.ar  180  PHE180     -0.0003
     72  CE2       -9.7200    8.0420   49.8190 C.ar  180  PHE180     -0.0003
     73  CZ        -9.9980    9.4040   49.8110 C.ar  180  PHE180     -0.0000
     74  N         -7.1260    8.7100   52.9960 N.am  181  GLY181     -0.1942
     75  CA        -7.9490    8.3560   54.1540 C.3   181  GLY181      0.2014
     76  C         -8.2790    6.8690   54.3630 C.2   181  GLY181      0.2638
     77  O         -8.4240    6.4340   55.5260 O.2   181  GLY181     -0.2714
     78  N         -8.4780    6.0860   53.3010 N.am  182  ASN182     -0.1972
     79  CA        -8.8580    4.6700   53.5050 C.3   182  ASN182      0.1688
     80  C         -7.6960    3.6910   53.5280 C.2   182  ASN182      0.2292
     81  O         -7.9380    2.4560   53.5330 O.2   182  ASN182     -0.2864
     82  CB        -9.8420    4.1960   52.4230 C.3   182  ASN182      0.1181
     83  CG        -9.1780    4.1760   51.0550 C.2   182  ASN182      0.2629
     84  OD1       -8.0050    4.5190   50.9580 O.2   182  ASN182     -0.2716
     85  ND2       -9.9240    3.8520   49.9950 N.am  182  ASN182     -0.0877
     86  N         -4.4000   11.6630   55.4290 N.3   187  GLY187     -0.1225
     87  CA        -5.6370   12.2170   54.8680 C.3   187  GLY187      0.1811
     88  C         -5.4970   12.1630   53.3510 C.2   187  GLY187      0.2280
     89  O         -6.1690   11.3840   52.6730 O.2   187  GLY187     -0.2866
     90  N         -5.2690   -4.8230   53.1730 N.3   282  TRP282     -0.1241
     91  CA        -5.7780   -3.4600   53.1250 C.3   282  TRP282      0.1605
     92  C         -7.3080   -3.6600   52.9580 C.2   282  TRP282      0.2264
     93  O         -8.1450   -3.0030   53.5960 O.2   282  TRP282     -0.2867
     94  CB        -5.2470   -2.7320   51.8760 C.3   282  TRP282      0.0550
     95  CG        -6.0620   -1.5130   51.6650 C.ar  282  TRP282      0.0003
     96  CD1       -6.3210   -0.4920   52.5590 C.ar  282  TRP282      0.0946
     97  CD2       -6.7920   -1.1860   50.4870 C.ar  282  TRP282      0.0152
     98  NE1       -7.1260    0.4760   51.9710 N.ar  282  TRP282     -0.2442
     99  CE2       -7.4150    0.0670   50.7010 C.ar  282  TRP282      0.0810
    100  CE3       -6.9780   -1.8300   49.2550 C.ar  282  TRP282      0.0012
    101  CZ2       -8.1820    0.6930   49.7190 C.ar  282  TRP282      0.0191
    102  CZ3       -7.7530   -1.2170   48.3140 C.ar  282  TRP282      0.0001
    103  CH2       -8.3760    0.0130   48.5520 C.ar  282  TRP282      0.0015
    104  N        -21.3230   -0.6460   53.7950 N.3   309  GLU309     -0.1245
    105  CA       -20.5630   -0.1770   52.6400 C.3   309  GLU309      0.1567
    106  C        -19.6400   -1.2310   52.1100 C.2   309  GLU309      0.2260
    107  O        -19.0660   -1.9920   52.8770 O.2   309  GLU309     -0.2867
    108  CB       -19.7220    1.0210   53.0320 C.3   309  GLU309      0.0388
    109  CG       -19.0770    1.7370   51.8660 C.3   309  GLU309      0.1160
    110  CD       -18.4630    3.0460   52.2930 C.2   309  GLU309      0.3649
    111  OE1      -17.7760    3.0380   53.3140 O.co2 309  GLU309     -0.2457
    112  OE2      -18.6750    4.0920   51.6570 O.co2 309  GLU309     -0.2457
    113  N        -17.1870   -2.2090   48.1640 N.3   311  ARG311     -0.1241
    114  CA       -16.6830   -1.6520   46.8840 C.3   311  ARG311      0.1606
    115  C        -16.4970   -2.7860   45.9040 C.2   311  ARG311      0.2264
    116  O        -16.1290   -3.8990   46.2670 O.2   311  ARG311     -0.2867
    117  CB       -15.2380   -1.1030   47.1330 C.3   311  ARG311      0.0562
    118  CG       -15.1640    0.2380   47.9020 C.2   311  ARG311      0.0159
    119  CD       -15.7070    1.5130   47.1650 C.2   311  ARG311      0.1886
    120  NE       -15.7270    2.7650   47.9580 N.pl3 311  ARG311     -0.0578
    121  CZ       -16.7690    3.2250   48.6630 C.cat 311  ARG311      0.5393
    122  NH1      -16.6930    4.3530   49.3530 N.pl3 311  ARG311      0.1358
    123  NH2      -17.9170    2.5610   48.6960 N.pl3 311  ARG311      0.1358
    124  N        -11.7600   -3.4290   41.2190 N.3   314  PHE314     -0.1241
    125  CA       -11.6120   -2.4570   40.1220 C.3   314  PHE314      0.1605
    126  C        -12.0630   -2.9570   38.7310 C.2   314  PHE314      0.2264
    127  O        -11.8510   -4.1390   38.3830 O.2   314  PHE314     -0.2867
    128  CB       -10.1080   -2.0680   40.0570 C.3   314  PHE314      0.0534
    129  CG        -9.4880   -1.6510   41.3850 C.ar  314  PHE314     -0.0203
    130  CD1       -9.8330   -0.4390   41.9550 C.ar  314  PHE314     -0.0042
    131  CD2       -8.4440   -2.3700   41.9780 C.ar  314  PHE314     -0.0042
    132  CE1       -9.2530    0.0250   43.1350 C.ar  314  PHE314     -0.0003
    133  CE2       -7.7820   -1.8580   43.1510 C.ar  314  PHE314     -0.0003
    134  CZ        -8.2270   -0.6750   43.7390 C.ar  314  PHE314     -0.0000
@<TRIPOS>BOND
     1   127   126    2
     2   126   125    1
     3    34    33    2
     4    33    32    1
     5   128   125    1
     6   128   129    1
     7   125   124    1
     8    31    32    1
     9    32    35    1
    10   129   130   ar
    11   129   131   ar
    12    35    36    1
    13    36    37   ar
    14    36    38   ar
    15   130   132   ar
    16   131   133   ar
    17    37    39   ar
    18    38    40   ar
    19    39    41   ar
    20    40    41   ar
    21    41    42    1
    22   132   134   ar
    23   133   134   ar
    24    56    54   ar
    25   115   116    2
    26   115   114    1
    27    55    54   ar
    28    54    53    1
    29    47    44    1
    30   114   117    1
    31   114   113    1
    32    43    44    1
    33   117   118    1
    34   119   118    2
    35   119   120    1
    36    53    52    1
    37    44    45    1
    38   120   121    2
    39   102   103   ar
    40   102   100   ar
    41    52    49    1
    42    48    45   am
    43    48    49    1
    44   103   101   ar
    45    61    62    1
    46    61    58    1
    47   121   123    1
    48   121   122    1
    49    45    46    2
    50    57    58    1
    51    58    59    1
    52   100    97   ar
    53    49    50    1
    54   101    99   ar
    55    73    72   ar
    56    73    71   ar
    57    72    70   ar
    58    71    69   ar
    59    70    68   ar
    60    69    68   ar
    61    68    67    1
    62    85    83   am
    63    67    64    1
    64    50    51    2
    65    97    99   ar
    66    97    95   ar
    67    99    98   ar
    68    59    60    2
    69    84    83    2
    70    83    82    1
    71    64    63    1
    72    64    65    1
    73   112   110   ar
    74    95    94    1
    75    95    96   ar
    76   109   110    1
    77   109   108    1
    78    12    11    1
    79    94    91    1
    80    13    11    1
    81    98    96   ar
    82   106   105    1
    83   106   107    2
    84   110   111   ar
    85    82    79    1
    86    11     8    1
    87   105   108    1
    88   105   104    1
    89    65    74   am
    90    65    66    2
    91    89    88    2
    92    92    91    1
    93    92    93    2
    94    74    75    1
    95    91    90    1
    96    78    79    1
    97    78    76   am
    98    88    87    1
    99    79    80    1
   100    80    81    2
   101     8     7    1
   102     8     9    1
   103    75    76    1
   104    76    77    2
   105    18    15    1
   106     7     3   am
   107     9    10    2
   108     9    14   am
   109    87    86    1
   110    14    15    1
   111    15    16    1
   112     3     2    1
   113     3     4    2
   114     2     5    1
   115     2     1    1
   116    17    16    2
   117    16    19   am
   118     5     6    1
   119    19    20    1
   120    20    21    1
   121    20    23    1
   122    29    30    1
   123    29    28    1
   124    30    24    1
   125    21    24   am
   126    21    22    2
   127    24    25    1
   128    28    25    1
   129    25    26    1
   130    26    27    2
