@<TRIPOS>MOLECULE
tmp/3dr8B00.pdb
 193 187 0 0 0
SMALL
GASTEIGER

@<TRIPOS>ATOM
      1  N         18.7470    2.4840   19.4170 N.3    22  ALA22      -0.1245
      2  CA        17.4600    3.1310   19.0870 C.3    22  ALA22       0.1562
      3  C         16.2780    2.3140   19.5750 C.2    22  ALA22       0.2260
      4  O         15.2640    2.8670   20.0490 O.2    22  ALA22      -0.2867
      5  CB        17.3560    3.4080   17.5670 C.3    22  ALA22       0.0290
      6  N         14.7880    4.9210   22.2410 N.3    26  THR26      -0.1218
      7  CA        13.9610    5.8740   21.4980 C.3    26  THR26       0.1862
      8  C         12.6240    5.2910   21.1320 C.2    26  THR26       0.2287
      9  O         12.4270    4.0730   21.1830 O.2    26  THR26      -0.2866
     10  CB        14.6050    6.3470   20.1820 C.3    26  THR26       0.1770
     11  OG1       14.5100    5.3030   19.1980 O.3    26  THR26      -0.2211
     12  CG2       16.0560    6.7530   20.4000 C.3    26  THR26       0.0375
     13  N         11.7030    5.5560   18.0580 N.3    28  ALA28      -0.1245
     14  CA        11.8250    5.5440   16.5830 C.3    28  ALA28       0.1562
     15  C         11.4550    4.1820   16.0040 C.2    28  ALA28       0.2260
     16  O         10.9950    4.0880   14.8460 O.2    28  ALA28      -0.2867
     17  CB        13.2640    5.9640   16.1240 C.3    28  ALA28       0.0290
     18  N         11.5310    4.9160    4.4020 N.3    84  HIS84      -0.1226
     19  CA        12.9520    4.9970    4.7380 C.3    84  HIS84       0.1752
     20  C         13.1960    5.2030    6.2360 C.2    84  HIS84       0.2597
     21  O         12.2610    5.4270    7.0440 O.2    84  HIS84      -0.2718
     22  CB        13.6150    6.1100    3.9300 C.3    84  HIS84       0.0759
     23  CG        13.0770    7.4580    4.2750 C.ar   84  HIS84       0.0818
     24  ND1       13.6080    8.2520    5.2790 N.ar   84  HIS84      -0.2268
     25  CD2       11.9880    8.1040    3.8200 C.ar   84  HIS84       0.1154
     26  CE1       12.8740    9.3450    5.3970 C.ar   84  HIS84       0.1986
     27  NE2       11.8850    9.2700    4.5260 N.ar   84  HIS84      -0.2212
     28  N         14.4630    5.1160    6.6190 N.am   85  SER85      -0.1938
     29  CA        14.8280    5.4100    8.0030 C.3    85  SER85       0.2055
     30  C         16.2330    5.9730    8.0530 C.2    85  SER85       0.2643
     31  O         17.0530    5.7160    7.1450 O.2    85  SER85      -0.2714
     32  CB        14.7130    4.1390    8.8600 C.3    85  SER85       0.2130
     33  OG        15.5190    3.1610    8.2740 O.3    85  SER85      -0.2179
     34  N         16.4870    6.8230    9.0580 N.am   86  VAL86      -0.1963
     35  CA        17.8020    7.3910    9.2280 C.3    86  VAL86       0.1727
     36  C         18.1350    7.3330   10.7210 C.2    86  VAL86       0.2616
     37  O         17.2890    7.6800   11.5400 O.2    86  VAL86      -0.2715
     38  CB        17.8940    8.8330    8.5970 C.3    86  VAL86       0.0290
     39  CG1       16.6950    9.6420    8.9620 C.3    86  VAL86       0.0023
     40  CG2       19.1540    9.5280    8.9810 C.3    86  VAL86       0.0023
     41  N         19.3370    6.8580   11.0560 N.am   87  TYR87      -0.1960
     42  CA        19.7890    6.7620   12.4430 C.3    87  TYR87       0.1771
     43  C         21.1880    7.3100   12.5290 C.2    87  TYR87       0.2619
     44  O         22.0810    6.8180   11.8630 O.2    87  TYR87      -0.2715
     45  CB        19.7890    5.3130   12.9420 C.3    87  TYR87       0.0574
     46  CG        18.4280    4.7170   12.9270 C.ar   87  TYR87      -0.0198
     47  CD1       17.5980    4.7890   14.0460 C.ar   87  TYR87      -0.0009
     48  CD2       17.9550    4.0860   11.7840 C.ar   87  TYR87      -0.0009
     49  CE1       16.3250    4.2260   14.0170 C.ar   87  TYR87       0.0417
     50  CE2       16.6910    3.5670   11.7370 C.ar   87  TYR87       0.0417
     51  CZ        15.8860    3.6240   12.8510 C.ar   87  TYR87       0.1957
     52  OH        14.6240    3.0880   12.7560 O.3    87  TYR87      -0.2866
     53  N         21.3800    8.3300   13.3570 N.am   88  VAL88      -0.1977
     54  CA        22.7100    8.8250   13.6220 C.3    88  VAL88       0.1596
     55  C         23.1700    8.2920   14.9920 C.2    88  VAL88       0.2287
     56  O         22.4120    8.3590   15.9750 O.2    88  VAL88      -0.2864
     57  CB        22.7460   10.3740   13.5330 C.3    88  VAL88       0.0276
     58  CG1       24.1230   10.9190   13.9030 C.3    88  VAL88       0.0022
     59  CG2       22.3340   10.8300   12.0980 C.3    88  VAL88       0.0022
     60  N         25.0620   13.1750   16.8750 N.3    93  GLN93      -0.1231
     61  CA        23.8500   13.8870   16.4780 C.3    93  GLN93       0.1698
     62  C         23.9890   15.4070   16.5970 C.2    93  GLN93       0.2593
     63  O         24.9350   15.8860   17.2060 O.2    93  GLN93      -0.2718
     64  CB        22.6750   13.3770   17.3230 C.3    93  GLN93       0.0381
     65  CG        22.3300   11.8900   17.0290 C.3    93  GLN93       0.0905
     66  CD        21.3130   11.3050   17.9950 C.2    93  GLN93       0.2608
     67  OE1       20.9700   10.1430   17.9000 O.2    93  GLN93      -0.2717
     68  NE2       20.8530   12.1070   18.9460 N.am   93  GLN93      -0.0878
     69  N         23.0690   16.1440   15.9750 N.am   94  GLY94      -0.1942
     70  CA        23.0240   17.6280   16.0200 C.3    94  GLY94       0.2014
     71  C         24.1410   18.3250   15.2590 C.2    94  GLY94       0.2639
     72  O         24.4300   19.5210   15.4830 O.2    94  GLY94      -0.2714
     73  N         24.7560   17.6080   14.3350 N.am   95  LYS95      -0.1963
     74  CA        25.9030   18.1250   13.5890 C.3    95  LYS95       0.1728
     75  C         25.6570   18.0950   12.0840 C.2    95  LYS95       0.2617
     76  O         26.5830   18.2510   11.2920 O.2    95  LYS95      -0.2715
     77  CB        27.1780   17.3400   13.9680 C.3    95  LYS95       0.0311
     78  CG        27.7060   17.6900   15.3740 C.3    95  LYS95       0.0038
     79  CD        28.8940   16.7950   15.8220 C.3    95  LYS95       0.0206
     80  CE        28.4550   15.6970   16.8070 C.3    95  LYS95       0.1093
     81  NZ        29.6250   14.9700   17.4230 N.3    95  LYS95      -0.1314
     82  N         24.4020   17.8520   11.6990 N.am   96  GLY96      -0.1940
     83  CA        23.9880   17.8550   10.3010 C.3    96  GLY96       0.2014
     84  C         24.0930   16.5530    9.5350 C.2    96  GLY96       0.2639
     85  O         23.7740   16.5290    8.3550 O.2    96  GLY96      -0.2714
     86  N         24.5220   15.4830   10.2110 N.am   97  LEU97      -0.1963
     87  CA        24.6530   14.1420    9.6120 C.3    97  LEU97       0.1728
     88  C         23.3220   13.5490    9.1190 C.2    97  LEU97       0.2617
     89  O         23.2430   12.9290    8.0510 O.2    97  LEU97      -0.2715
     90  CB        25.3640   13.1700   10.5680 C.3    97  LEU97       0.0311
     91  CG        26.8410   13.4860   10.8630 C.3    97  LEU97       0.0022
     92  CD1       27.4180   12.4920   11.8570 C.3    97  LEU97       0.0001
     93  CD2       27.6870   13.5360    9.5590 C.3    97  LEU97       0.0001
     94  N         22.2790   13.7230    9.9220 N.am   98  GLY98      -0.1940
     95  CA        20.9120   13.3490    9.5190 C.3    98  GLY98       0.2014
     96  C         20.5210   13.8810    8.1560 C.2    98  GLY98       0.2638
     97  O         20.1180   13.1300    7.2720 O.2    98  GLY98      -0.2714
     98  N         20.6720   15.1980    7.9760 N.am   99  ARG99      -0.1977
     99  CA        20.3490   15.8030    6.6860 C.3    99  ARG99       0.1597
    100  C         21.2250   15.3640    5.4950 C.2    99  ARG99       0.2287
    101  O         20.7320   15.2300    4.3950 O.2    99  ARG99      -0.2864
    102  CB        20.4370   17.3110    6.8050 C.3    99  ARG99       0.0334
    103  CG        19.7740   18.0380    5.6500 C.3    99  ARG99       0.0492
    104  CD        19.7000   19.5520    5.9370 C.3    99  ARG99       0.2205
    105  NE        18.8040   20.1830    4.9720 N.pl3  99  ARG99      -0.0865
    106  CZ        19.1460   20.5070    3.7350 C.cat  99  ARG99       0.5346
    107  NH1       20.3870   20.2670    3.3090 N.pl3  99  ARG99       0.1354
    108  NH2       18.2460   21.0500    2.9150 N.pl3  99  ARG99       0.1354
    109  N          8.0170    8.7190    5.4480 N.3   118  ALA118     -0.1231
    110  CA         8.6690    8.7460    6.7730 C.3   118  ALA118      0.1694
    111  C          7.6210    8.4960    7.8740 C.2   118  ALA118      0.2593
    112  O          6.6540    9.2720    7.9920 O.2   118  ALA118     -0.2718
    113  CB         9.3310   10.1540    7.0230 C.3   118  ALA118      0.0304
    114  N          7.8150    7.4320    8.6510 N.am  119  GLY119     -0.1942
    115  CA         6.9850    7.1300    9.8140 C.3   119  GLY119      0.2014
    116  C          7.6850    7.6520   11.0510 C.2   119  GLY119      0.2639
    117  O          8.6230    7.0450   11.5100 O.2   119  GLY119     -0.2714
    118  N          7.2320    8.8030   11.5640 N.am  120  ILE120     -0.1963
    119  CA         7.9040    9.5300   12.6340 C.3   120  ILE120      0.1727
    120  C          7.0450    9.6340   13.8790 C.2   120  ILE120      0.2616
    121  O          5.9280   10.1040   13.7950 O.2   120  ILE120     -0.2715
    122  CB         8.3020   10.9960   12.1790 C.3   120  ILE120      0.0290
    123  CG1        9.0000   10.9640   10.8060 C.3   120  ILE120      0.0022
    124  CG2        9.0950   11.7030   13.2490 C.3   120  ILE120      0.0023
    125  CD1        9.2500   12.3810   10.2130 C.3   120  ILE120      0.0001
    126  N          7.5730    9.2430   15.0470 N.am  121  GLU121     -0.1977
    127  CA         6.8060    9.4140   16.2860 C.3   121  GLU121      0.1602
    128  C          6.6940   10.9240   16.5600 C.2   121  GLU121      0.2287
    129  O          7.6850   11.6400   16.4020 O.2   121  GLU121     -0.2864
    130  CB         7.4290    8.6390   17.4710 C.3   121  GLU121      0.0415
    131  CG         6.4350    8.3310   18.6100 C.3   121  GLU121      0.1163
    132  CD         6.0530    9.5250   19.4810 C.2   121  GLU121      0.3649
    133  OE1        6.9080   10.3970   19.7400 O.co2 121  GLU121     -0.2457
    134  OE2        4.8800    9.6050   19.8850 O.co2 121  GLU121     -0.2457
    135  N          9.2250   13.4420   18.0080 N.3   124  ASN124     -0.1225
    136  CA        10.5750   13.4540   17.4300 C.3   124  ASN124      0.1785
    137  C         10.8390   14.7400   16.6220 C.2   124  ASN124      0.2597
    138  O         10.8630   14.7470   15.3740 O.2   124  ASN124     -0.2718
    139  CB        10.7850   12.1830   16.5970 C.3   124  ASN124      0.1169
    140  CG        12.2290   11.9520   16.2160 C.2   124  ASN124      0.2627
    141  OD1       13.0970   12.7850   16.4410 O.2   124  ASN124     -0.2716
    142  ND2       12.4820   10.8230   15.6000 N.am  124  ASN124     -0.0877
    143  N         11.0310   15.8330   17.3490 N.am  125  ALA125     -0.1966
    144  CA        11.1160   17.1720   16.7310 C.3   125  ALA125      0.1728
    145  C         12.3210   17.2550   15.7730 C.2   125  ALA125      0.2616
    146  O         12.2570   17.8930   14.7210 O.2   125  ALA125     -0.2715
    147  CB        11.1910   18.2650   17.8380 C.3   125  ALA125      0.0334
    148  N         13.4160   16.5920   16.1440 N.am  126  ALA126     -0.1963
    149  CA        14.6120   16.5700   15.3080 C.3   126  ALA126      0.1728
    150  C         14.3310   15.9310   13.9450 C.2   126  ALA126      0.2616
    151  O         14.7120   16.4540   12.9070 O.2   126  ALA126     -0.2715
    152  CB        15.7440   15.8230   16.0310 C.3   126  ALA126      0.0334
    153  N         13.6920   14.7680   13.9470 N.am  127  SER127     -0.1950
    154  CA        13.3700   14.1150   12.6680 C.3   127  SER127      0.1924
    155  C         12.3310   14.9160   11.8620 C.2   127  SER127      0.2314
    156  O         12.4410   15.0800   10.6550 O.2   127  SER127     -0.2863
    157  CB        12.8480   12.7090   12.8910 C.3   127  SER127      0.2116
    158  OG        12.6060   12.1100   11.6250 O.3   127  SER127     -0.2180
    159  N         12.0070   18.2210   11.8920 N.3   129  ARG129     -0.1231
    160  CA        12.7370   19.3730   11.3430 C.3   129  ARG129      0.1694
    161  C         13.5680   18.9630   10.1520 C.2   129  ARG129      0.2592
    162  O         13.5660   19.6300    9.1310 O.2   129  ARG129     -0.2718
    163  CB        13.6940   19.9480   12.3760 C.3   129  ARG129      0.0321
    164  CG        13.0520   20.8240   13.3920 C.3   129  ARG129      0.0489
    165  CD        14.1360   21.6800   14.0300 C.3   129  ARG129      0.2205
    166  NE        13.9090   21.8940   15.4540 N.pl3 129  ARG129     -0.0865
    167  CZ        14.6500   22.6960   16.2110 C.cat 129  ARG129      0.5346
    168  NH1       15.6590   23.3890   15.6770 N.pl3 129  ARG129      0.1354
    169  NH2       14.3770   22.8070   17.5060 N.pl3 129  ARG129      0.1354
    170  N         14.2920   17.8520   10.3030 N.am  130  LEU130     -0.1966
    171  CA        15.1430   17.3060    9.2500 C.3   130  LEU130      0.1728
    172  C         14.3650   17.0980    7.9440 C.2   130  LEU130      0.2616
    173  O         14.7580   17.6050    6.8980 O.2   130  LEU130     -0.2715
    174  CB        15.7370   15.9580    9.7270 C.3   130  LEU130      0.0311
    175  CG        16.3590   15.0090    8.6930 C.3   130  LEU130      0.0022
    176  CD1       17.5890   15.6180    8.1490 C.3   130  LEU130      0.0001
    177  CD2       16.6910   13.6390    9.2730 C.3   130  LEU130      0.0001
    178  N         13.2700   16.3360    8.0270 N.am  131  HIS131     -0.1973
    179  CA        12.3490   16.0970    6.9210 C.3   131  HIS131      0.1656
    180  C         11.7440   17.3800    6.3120 C.2   131  HIS131      0.2291
    181  O         11.7550   17.5420    5.0870 O.2   131  HIS131     -0.2864
    182  CB        11.2830   15.0810    7.3490 C.3   131  HIS131      0.0771
    183  CG        11.8500   13.6830    7.4960 C.ar  131  HIS131      0.0820
    184  ND1       12.5570   13.2780    8.6070 N.ar  131  HIS131     -0.2267
    185  CD2       11.8810   12.6380    6.6320 C.ar  131  HIS131      0.1154
    186  CE1       12.9640   12.0230    8.4390 C.ar  131  HIS131      0.1986
    187  NE2       12.5750   11.6170    7.2430 N.ar  131  HIS131     -0.2212
    188  N         13.1400   20.2990    6.3370 N.3   133  SER133     -0.1217
    189  CA        14.2950   20.9110    5.6480 C.3   133  SER133      0.1889
    190  C         14.6150   20.2910    4.2720 C.2   133  SER133      0.2288
    191  O         15.2970   20.8970    3.4540 O.2   133  SER133     -0.2866
    192  CB        15.5610   20.9900    6.5570 C.3   133  SER133      0.2089
    193  OG        16.2970   19.7660    6.6240 O.3   133  SER133     -0.2183
@<TRIPOS>BOND
     1   108   106    1
     2   107   106    1
     3   191   190    2
     4   106   105    2
     5    25    23   ar
     6    25    27   ar
     7    22    23    1
     8    22    19    1
     9   190   189    1
    10    23    24   ar
    11   101   100    2
    12    18    19    1
    13    27    26   ar
    14    19    20    1
    15   105   104    1
    16   181   180    2
    17    24    26   ar
    18   109   110    1
    19   100    99    1
    20   189   188    1
    21   189   192    1
    22   103   104    1
    23   103   102    1
    24    20    28   am
    25    20    21    2
    26   180   179    1
    27   192   193    1
    28    28    29    1
    29   185   187   ar
    30   185   183   ar
    31    99   102    1
    32    99    98    1
    33   110   113    1
    34   110   111    1
    35   173   172    2
    36   179   182    1
    37   179   178    1
    38    31    30    2
    39   187   186   ar
    40    97    96    2
    41   182   183    1
    42   183   184   ar
    43   111   112    2
    44   111   114   am
    45   172   178   am
    46   172   171    1
    47    98    96   am
    48    29    30    1
    49    29    32    1
    50    89    88    2
    51    30    34   am
    52   176   175    1
    53    96    95    1
    54    33    32    1
    55    85    84    2
    56   186   184   ar
    57    38    39    1
    58    38    40    1
    59    38    35    1
    60   114   115    1
    61   175   177    1
    62   175   174    1
    63    34    35    1
    64    88    87    1
    65    88    94   am
    66   162   161    2
    67    35    36    1
    68   171   174    1
    69   171   170    1
    70    95    94    1
    71    84    86   am
    72    84    83    1
    73    93    91    1
    74    87    86    1
    75    87    90    1
    76   115   116    1
    77   161   170   am
    78   161   160    1
    79   125   123    1
    80    83    82    1
    81    90    91    1
    82   156   155    2
    83    36    41   am
    84    36    37    2
    85   123   122    1
    86    91    92    1
    87   116   117    2
    88   116   118   am
    89    41    42    1
    90    76    75    2
    91   160   159    1
    92   160   163    1
    93   118   119    1
    94   158   157    1
    95    82    75   am
    96    50    48   ar
    97    50    51   ar
    98    48    46   ar
    99   155   154    1
   100    44    43    2
   101    75    74    1
   102    59    57    1
   103   122   119    1
   104   122   124    1
   105   163   164    1
   106    42    43    1
   107    42    45    1
   108    43    53   am
   109   119   120    1
   110   154   157    1
   111   154   153    1
   112    52    51    1
   113    51    49   ar
   114   151   150    2
   115    46    45    1
   116    46    47   ar
   117    53    54    1
   118   164   165    1
   119    57    54    1
   120    57    58    1
   121    74    77    1
   122    74    73    1
   123    54    55    1
   124   121   120    2
   125   120   126   am
   126   150   153   am
   127   150   149    1
   128    77    78    1
   129    49    47   ar
   130   165   166    1
   131    73    71   am
   132   146   145    2
   133    16    15    2
   134    55    56    2
   135   126   127    1
   136    71    72    2
   137    71    70    1
   138   149   152    1
   139   149   148    1
   140   138   137    2
   141    78    79    1
   142   166   167    2
   143   142   140   am
   144   168   167    1
   145   145   148   am
   146   145   144    1
   147    79    80    1
   148    69    70    1
   149    69    62   am
   150    15    14    1
   151    17    14    1
   152   167   169    1
   153   140   141    2
   154   140   139    1
   155   127   128    1
   156   127   130    1
   157   129   128    2
   158    61    62    1
   159    61    60    1
   160    61    64    1
   161    14    13    1
   162   139   136    1
   163    62    63    2
   164   137   143   am
   165   137   136    1
   166   144   143    1
   167   144   147    1
   168    80    81    1
   169    65    64    1
   170    65    66    1
   171   136   135    1
   172   130   131    1
   173     5     2    1
   174    67    66    2
   175    66    68   am
   176   131   132    1
   177     2     1    1
   178     2     3    1
   179    11    10    1
   180   132   133   ar
   181   132   134   ar
   182     3     4    2
   183    10    12    1
   184    10     7    1
   185     8     9    2
   186     8     7    1
   187     7     6    1
