@<TRIPOS>MOLECULE
tmp/3drnA00.pdb
 86 82 0 0 0
SMALL
GASTEIGER

@<TRIPOS>ATOM
      1  N         28.4580   66.9450   11.2730 N.3    37  PRO37      -0.2102
      2  CA        28.4850   66.3820    9.9200 C.3    37  PRO37       0.1504
      3  C         29.6760   65.5320    9.4900 C.2    37  PRO37       0.2575
      4  O         29.5090   64.3660    9.1360 O.2    37  PRO37      -0.2718
      5  CB        28.3180   67.6160    9.0220 C.3    37  PRO37       0.0282
      6  CG        27.6090   68.6160    9.9180 C.3    37  PRO37       0.0208
      7  CD        28.3370   68.4120   11.2270 C.3    37  PRO37       0.0893
      8  N         30.8740   66.1060    9.5150 N.am   38  LYS38      -0.1980
      9  CA        32.0480   65.3740    9.0520 C.3    38  LYS38       0.1596
     10  C         33.3460   65.7680    9.7380 C.2    38  LYS38       0.2287
     11  O         33.5390   66.9220   10.1090 O.2    38  LYS38      -0.2864
     12  CB        32.1880   65.5830    7.5400 C.3    38  LYS38       0.0298
     13  CG        33.4160   64.9410    6.9120 C.3    38  LYS38       0.0038
     14  CD        33.5630   65.3520    5.4440 C.3    38  LYS38       0.0206
     15  CE        32.3490   64.9590    4.6190 C.3    38  LYS38       0.1093
     16  NZ        32.4800   65.4100    3.2060 N.3    38  LYS38      -0.1314
     17  N         36.5700   69.3420    9.1460 N.3    41  THR41      -0.1204
     18  CA        36.0280   70.3540    8.2510 C.3    41  THR41       0.1979
     19  C         36.0590   71.6360    9.0870 C.2    41  THR41       0.2460
     20  O         36.1250   71.5740   10.3150 O.2    41  THR41      -0.2732
     21  CB        34.5750   70.0580    7.8210 C.3    41  THR41       0.1783
     22  OG1       33.7590   69.8640    8.9810 O.3    41  THR41      -0.2211
     23  CG2       34.5240   68.8190    6.9440 C.3    41  THR41       0.0376
     24  N         36.0270   72.8100    8.4370 N.am   42  PRO42      -0.2717
     25  CA        36.0580   74.0900    9.1550 C.3    42  PRO42       0.1536
     26  C         35.1340   74.1590   10.3750 C.2    42  PRO42       0.2599
     27  O         35.5910   74.3390   11.5030 O.2    42  PRO42      -0.2715
     28  CB        35.6630   75.0920    8.0760 C.3    42  PRO42       0.0310
     29  CG        36.2900   74.5010    6.8490 C.3    42  PRO42       0.0237
     30  CD        35.9280   73.0280    6.9800 C.3    42  PRO42       0.0939
     31  N         33.8360   74.0140   10.1350 N.am   43  GLY43      -0.1941
     32  CA        32.8600   74.0810   11.2080 C.3    43  GLY43       0.2014
     33  C         32.9710   73.0300   12.2960 C.2    43  GLY43       0.2639
     34  O         32.9310   73.3660   13.4740 O.2    43  GLY43      -0.2714
     35  N         33.1060   71.7620   11.9170 N.am   44  SER44      -0.1949
     36  CA        33.2090   70.6960   12.9090 C.3    44  SER44       0.1924
     37  C         34.5320   70.7600   13.6550 C.2    44  SER44       0.2314
     38  O         34.6220   70.3740   14.8170 O.2    44  SER44      -0.2863
     39  CB        33.0310   69.3310   12.2470 C.3    44  SER44       0.2116
     40  OG        31.6920   69.1670   11.8080 O.3    44  SER44      -0.2180
     41  N         36.0050   73.5180   14.3650 N.3    46  ARG46      -0.1245
     42  CA        35.7770   74.6360   15.2710 C.3    46  ARG46       0.1563
     43  C         34.9770   74.1470   16.4810 C.2    46  ARG46       0.2260
     44  O         35.2900   74.4860   17.6230 O.2    46  ARG46      -0.2867
     45  CB        34.9910   75.7280   14.5470 C.3    46  ARG46       0.0307
     46  CG        35.1820   77.1370   15.0850 C.3    46  ARG46       0.0489
     47  CD        34.3680   78.1080   14.2400 C.3    46  ARG46       0.2205
     48  NE        34.4610   77.7630   12.8200 N.pl3  46  ARG46      -0.0865
     49  CZ        33.5680   78.1110   11.8980 C.cat  46  ARG46       0.5346
     50  NH1       32.5000   78.8270   12.2350 N.pl3  46  ARG46       0.1354
     51  NH2       33.7310   77.7250   10.6370 N.pl3  46  ARG46       0.1354
     52  N         21.6110   68.1350    4.9900 N.3   108  LEU108     -0.1245
     53  CA        22.8890   67.6550    5.5120 C.3   108  LEU108      0.1561
     54  C         22.7410   67.2280    6.9750 C.2   108  LEU108      0.2260
     55  O         21.7960   67.6280    7.6590 O.2   108  LEU108     -0.2867
     56  CB        23.9740   68.7300    5.3590 C.3   108  LEU108      0.0270
     57  CG        23.8800   70.0360    6.1410 C.3   108  LEU108      0.0019
     58  CD1       24.4340   69.8220    7.5330 C.3   108  LEU108      0.0001
     59  CD2       24.6870   71.1130    5.4310 C.3   108  LEU108      0.0001
     60  N         23.7400   69.4680   13.0320 N.3   111  ARG111     -0.1245
     61  CA        24.7450   69.7440   14.0430 C.3   111  ARG111      0.1563
     62  C         23.8710   70.0270   15.2610 C.2   111  ARG111      0.2260
     63  O         23.3950   71.1480   15.4570 O.2   111  ARG111     -0.2867
     64  CB        25.5720   70.9820   13.7020 C.3   111  ARG111      0.0307
     65  CG        26.7470   71.1890   14.6550 C.3   111  ARG111      0.0489
     66  CD        27.4670   72.5010   14.3810 C.3   111  ARG111      0.2205
     67  NE        27.8960   72.6150   12.9910 N.pl3 111  ARG111     -0.0865
     68  CZ        28.8850   71.9100   12.4480 C.cat 111  ARG111      0.5346
     69  NH1       29.5650   71.0320   13.1800 N.pl3 111  ARG111      0.1354
     70  NH2       29.1880   72.0790   11.1700 N.pl3 111  ARG111      0.1354
     71  N         23.4220   74.6370   12.8270 N.3   129  GLN129     -0.1245
     72  CA        24.5010   74.3490   11.8940 C.3   129  GLN129      0.1566
     73  C         25.5220   75.4850   11.8050 C.2   129  GLN129      0.2260
     74  O         26.7310   75.2440   11.7990 O.2   129  GLN129     -0.2867
     75  CB        23.9240   74.0610   10.5060 C.3   129  GLN129      0.0367
     76  CG        24.9220   74.1630    9.3470 C.3   129  GLN129      0.0905
     77  CD        26.2020   73.3590    9.5650 C.2   129  GLN129      0.2608
     78  OE1       26.1610   72.1920    9.9610 O.2   129  GLN129     -0.2717
     79  NE2       27.3470   73.9830    9.2910 N.am  129  GLN129     -0.0878
     80  N         28.8930   76.5970   15.1630 N.3   132  PRO132     -0.2116
     81  CA        29.6800   75.4840   15.7120 C.3   132  PRO132      0.1372
     82  C         30.3170   75.6980   17.0820 C.2   132  PRO132      0.2244
     83  O         30.2430   74.8230   17.9410 O.2   132  PRO132     -0.2868
     84  CB        30.7140   75.2100   14.6150 C.3   132  PRO132      0.0268
     85  CG        30.8140   76.5330   13.8840 C.3   132  PRO132      0.0207
     86  CD        29.3750   76.9580   13.8180 C.3   132  PRO132      0.0892
@<TRIPOS>BOND
     1    16    15    1
     2    15    14    1
     3    52    53    1
     4    56    53    1
     5    56    57    1
     6    59    57    1
     7    14    13    1
     8    53    54    1
     9    57    58    1
    10    29    30    1
    11    29    28    1
    12    13    12    1
    13    23    21    1
    14    54    55    2
    15    30    24    1
    16    12     9    1
    17    21    18    1
    18    21    22    1
    19    28    25    1
    20    18    19    1
    21    18    17    1
    22    24    19   am
    23    24    25    1
    24     5     6    1
    25     5     2    1
    26     9     8    1
    27     9    10    1
    28    19    20    2
    29     4     3    2
    30    25    26    1
    31    79    77   am
    32    76    77    1
    33    76    75    1
    34     3     8   am
    35     3     2    1
    36    77    78    2
    37    10    11    2
    38     6     7    1
    39     2     1    1
    40    31    26   am
    41    31    32    1
    42    26    27    2
    43    75    72    1
    44    51    49    1
    45    70    68    1
    46    32    33    1
    47     7     1    1
    48    74    73    2
    49    73    72    1
    50    40    39    1
    51    72    71    1
    52    49    50    1
    53    49    48    2
    54    35    33   am
    55    35    36    1
    56    39    36    1
    57    33    34    2
    58    68    67    2
    59    68    69    1
    60    48    47    1
    61    36    37    1
    62    67    66    1
    63    60    61    1
    64    37    38    2
    65    64    61    1
    66    64    65    1
    67    86    85    1
    68    86    80    1
    69    85    84    1
    70    61    62    1
    71    47    46    1
    72    41    42    1
    73    66    65    1
    74    45    46    1
    75    45    42    1
    76    84    81    1
    77    80    81    1
    78    62    63    2
    79    42    43    1
    80    81    82    1
    81    43    44    2
    82    82    83    2
