@<TRIPOS>MOLECULE
tmp/3drsA00.pdb
 194 193 0 0 0
SMALL
GASTEIGER

@<TRIPOS>ATOM
      1  N         11.6590   21.7050   20.9120 N.3    96  PRO96      -0.2116
      2  CA        10.7950   21.4430   19.7720 C.3    96  PRO96       0.1372
      3  C          9.2810   21.2650   20.1010 C.2    96  PRO96       0.2244
      4  O          8.8920   20.7130   21.1760 O.2    96  PRO96      -0.2868
      5  CB        11.3790   20.1500   19.2170 C.3    96  PRO96       0.0268
      6  CG        11.9750   19.4740   20.4120 C.3    96  PRO96       0.0207
      7  CD        11.9970   20.4480   21.5720 C.3    96  PRO96       0.0892
      8  N          7.3290   19.1810   14.0700 N.3   101  LEU101     -0.1231
      9  CA         7.9660   17.9500   13.5930 C.3   101  LEU101      0.1693
     10  C          7.4770   17.4820   12.2290 C.2   101  LEU101      0.2592
     11  O          6.2740   17.2600   12.0450 O.2   101  LEU101     -0.2718
     12  CB         7.8400   16.8080   14.6250 C.3   101  LEU101      0.0284
     13  CG         8.4390   17.1350   15.9900 C.3   101  LEU101      0.0019
     14  CD1        8.0360   16.2080   17.0680 C.3   101  LEU101      0.0001
     15  CD2        9.9340   17.2870   15.9360 C.3   101  LEU101      0.0001
     16  N          8.4160   17.2920   11.2920 N.am  102  LYS102     -0.1966
     17  CA         8.0850   16.7280    9.9780 C.3   102  LYS102      0.1728
     18  C          7.8930   15.2410   10.1920 C.2   102  LYS102      0.2616
     19  O          8.7460   14.5850   10.7970 O.2   102  LYS102     -0.2715
     20  CB         9.2010   16.9390    8.9790 C.3   102  LYS102      0.0311
     21  CG         9.9390   18.2440    9.2050 C.3   102  LYS102      0.0038
     22  CD         9.7520   19.2300    8.0640 C.3   102  LYS102      0.0206
     23  CE        10.9850   20.0810    7.9350 C.3   102  LYS102      0.1093
     24  NZ        12.1470   19.3500    8.5040 N.3   102  LYS102     -0.1314
     25  N          6.7420   14.7310    9.7560 N.am  103  LYS103     -0.1963
     26  CA         6.3920   13.3230    9.9400 C.3   103  LYS103      0.1728
     27  C          7.3630   12.3140    9.2930 C.2   103  LYS103      0.2616
     28  O          7.8420   12.5120    8.1690 O.2   103  LYS103     -0.2715
     29  CB         4.9510   13.0880    9.4580 C.3   103  LYS103      0.0311
     30  CG         4.4230   11.6740    9.6250 C.3   103  LYS103      0.0038
     31  CD         3.0270   11.5570    9.0310 C.3   103  LYS103      0.0206
     32  CE         3.0510   11.4830    7.5010 C.3   103  LYS103      0.1093
     33  NZ         2.1840   10.3920    6.9600 N.3   103  LYS103     -0.1314
     34  N          7.6540   11.2320   10.0160 N.am  104  ASN104     -0.1958
     35  CA         8.5190   10.1710    9.4910 C.3   104  ASN104      0.1819
     36  C          7.8590    8.7940    9.5370 C.2   104  ASN104      0.2621
     37  O          6.8090    8.6100   10.1740 O.2   104  ASN104     -0.2715
     38  CB         9.8910   10.1520   10.1630 C.3   104  ASN104      0.1195
     39  CG        10.7060   11.3930    9.8480 C.2   104  ASN104      0.2630
     40  OD1       11.0070   12.1730   10.7490 O.2   104  ASN104     -0.2716
     41  ND2       11.0290   11.6110    8.5640 N.am  104  ASN104     -0.0877
     42  N          8.4570    7.8560    8.8020 N.am  105  LYS105     -0.1963
     43  CA         7.9580    6.4850    8.7160 C.3   105  LYS105      0.1728
     44  C          8.0950    5.8520   10.0780 C.2   105  LYS105      0.2617
     45  O          7.0980    5.4650   10.7170 O.2   105  LYS105     -0.2715
     46  CB         8.7980    5.6700    7.7180 C.3   105  LYS105      0.0311
     47  CG         8.6740    6.1000    6.2440 C.3   105  LYS105      0.0038
     48  CD         7.8450    5.1100    5.4120 C.3   105  LYS105      0.0206
     49  CE         7.7100    5.5580    3.9600 C.3   105  LYS105      0.1093
     50  NZ         6.2930    5.6640    3.5200 N.3   105  LYS105     -0.1314
     51  N          9.3520    5.7630   10.5100 N.am  106  SER106     -0.1936
     52  CA         9.6980    5.1630   11.7920 C.3   106  SER106      0.2055
     53  C         10.5120    6.1060   12.6860 C.2   106  SER106      0.2642
     54  O         11.4730    6.7460   12.2270 O.2   106  SER106     -0.2714
     55  CB        10.4570    3.8410   11.5740 C.3   106  SER106      0.2130
     56  OG        11.0950    3.8080   10.3020 O.3   106  SER106     -0.2179
     57  N         10.1190    6.1890   13.9610 N.am  107  VAL107     -0.1977
     58  CA        10.8520    6.9800   14.9620 C.3   107  VAL107      0.1596
     59  C         11.1650    6.0950   16.1790 C.2   107  VAL107      0.2287
     60  O         10.2650    5.4680   16.7690 O.2   107  VAL107     -0.2864
     61  CB        10.1130    8.2840   15.3810 C.3   107  VAL107      0.0276
     62  CG1        8.6820    7.9920   15.7600 C.3   107  VAL107      0.0022
     63  CG2       10.8160    8.9360   16.5560 C.3   107  VAL107      0.0022
     64  N         13.1340    5.6140   20.0640 N.3   109  VAL109     -0.1245
     65  CA        13.6820    6.2950   21.2350 C.3   109  VAL109      0.1561
     66  C         14.8330    5.5120   21.8610 C.2   109  VAL109      0.2260
     67  O         14.7000    4.3180   22.2050 O.2   109  VAL109     -0.2867
     68  CB        12.6010    6.6310   22.3080 C.3   109  VAL109      0.0252
     69  CG1       13.2600    7.2370   23.5980 C.3   109  VAL109      0.0019
     70  CG2       11.5140    7.5430   21.7320 C.3   109  VAL109      0.0019
     71  N         17.0900   11.7730   11.0550 N.3   180  VAL180     -0.1245
     72  CA        16.8970   12.8660   11.9820 C.3   180  VAL180      0.1561
     73  C         17.2440   12.4410   13.4210 C.2   180  VAL180      0.2260
     74  O         16.7370   11.4270   13.9470 O.2   180  VAL180     -0.2867
     75  CB        15.4460   13.3730   11.8850 C.3   180  VAL180      0.0252
     76  CG1       14.5120   12.3780   12.5580 C.3   180  VAL180      0.0019
     77  CG2       15.3020   14.7510   12.5110 C.3   180  VAL180      0.0019
     78  N         17.1000   13.6710   17.2480 N.3   182  TYR182     -0.1241
     79  CA        16.6560   14.6390   18.1960 C.3   182  TYR182      0.1605
     80  C         17.3450   14.4040   19.5430 C.2   182  TYR182      0.2264
     81  O         17.0180   13.4730   20.2810 O.2   182  TYR182     -0.2867
     82  CB        15.1390   14.6110   18.2860 C.3   182  TYR182      0.0534
     83  CG        14.4670   15.2130   17.0660 C.ar  182  TYR182     -0.0201
     84  CD1       15.2000   15.9130   16.1070 C.ar  182  TYR182     -0.0009
     85  CD2       13.0900   15.1280   16.8980 C.ar  182  TYR182     -0.0009
     86  CE1       14.5610   16.5250   14.9930 C.ar  182  TYR182      0.0417
     87  CE2       12.4400   15.7310   15.8040 C.ar  182  TYR182      0.0417
     88  CZ        13.1650   16.4240   14.8400 C.ar  182  TYR182      0.1957
     89  OH        12.4960   16.9760   13.7360 O.3   182  TYR182     -0.2866
     90  N         17.7240   15.1910   23.1640 N.3   184  TYR184     -0.1241
     91  CA        17.0300   15.8660   24.2560 C.3   184  TYR184      0.1605
     92  C         17.4320   15.2980   25.6020 C.2   184  TYR184      0.2264
     93  O         17.0530   14.1850   25.9730 O.2   184  TYR184     -0.2867
     94  CB        15.4900   15.8770   24.0970 C.3   184  TYR184      0.0534
     95  CG        14.7710   16.4310   25.3250 C.ar  184  TYR184     -0.0201
     96  CD1       14.4850   17.7820   25.4450 C.ar  184  TYR184     -0.0009
     97  CD2       14.5260   15.6220   26.4300 C.ar  184  TYR184     -0.0009
     98  CE1       13.9300   18.2910   26.6020 C.ar  184  TYR184      0.0417
     99  CE2       13.9370   16.1310   27.5740 C.ar  184  TYR184      0.0417
    100  CZ        13.6320   17.4560   27.6520 C.ar  184  TYR184      0.1957
    101  OH        13.0710   17.9420   28.8130 O.3   184  TYR184     -0.2866
    102  N         16.0650   10.7430   19.8450 N.3   189  TYR189     -0.1241
    103  CA        14.8860   10.4500   19.0340 C.3   189  TYR189      0.1605
    104  C         15.3560   10.3230   17.6200 C.2   189  TYR189      0.2264
    105  O         15.9260   11.2720   17.0550 O.2   189  TYR189     -0.2867
    106  CB        13.8280   11.5410   19.1480 C.3   189  TYR189      0.0534
    107  CG        13.4920   11.8410   20.5860 C.ar  189  TYR189     -0.0201
    108  CD1       13.9690   12.9900   21.2170 C.ar  189  TYR189     -0.0009
    109  CD2       12.8140   10.9140   21.3500 C.ar  189  TYR189     -0.0009
    110  CE1       13.7200   13.2200   22.5540 C.ar  189  TYR189      0.0417
    111  CE2       12.5810   11.1250   22.6980 C.ar  189  TYR189      0.0417
    112  CZ        13.0360   12.2670   23.2940 C.ar  189  TYR189      0.1957
    113  OH        12.7620   12.4540   24.6290 O.3   189  TYR189     -0.2866
    114  N         14.4200    9.3410   13.7790 N.3   191  GLY191     -0.1225
    115  CA        13.3880    9.1800   12.7830 C.3   191  GLY191      0.1811
    116  C         13.9440    9.0370   11.3920 C.2   191  GLY191      0.2280
    117  O         14.9490    9.6610   11.0220 O.2   191  GLY191     -0.2866
    118  N          5.9290    3.3770   20.5650 N.3   226  PRO226     -0.2116
    119  CA         5.0020    4.5080   20.4270 C.3   226  PRO226      0.1372
    120  C          3.6040    3.9810   20.6320 C.2   226  PRO226      0.2244
    121  O          3.3570    2.7910   20.4190 O.2   226  PRO226     -0.2868
    122  CB         5.1910    4.9330   18.9690 C.3   226  PRO226      0.0268
    123  CG         5.4970    3.6690   18.2820 C.3   226  PRO226      0.0207
    124  CD         6.3370    2.8580   19.2460 C.3   226  PRO226      0.0892
    125  N          4.6570    7.6750   21.9360 N.3   228  PHE228     -0.1227
    126  CA         5.6960    8.2540   22.8030 C.3   228  PHE228      0.1736
    127  C          5.1200    9.3410   23.6940 C.2   228  PHE228      0.2595
    128  O          4.5740   10.3250   23.2090 O.2   228  PHE228     -0.2718
    129  CB         6.8310    8.8250   21.9750 C.3   228  PHE228      0.0547
    130  CG         7.5140    7.8070   21.1410 C.ar  228  PHE228     -0.0202
    131  CD1        8.0620    6.6830   21.7240 C.ar  228  PHE228     -0.0042
    132  CD2        7.5570    7.9400   19.7680 C.ar  228  PHE228     -0.0042
    133  CE1        8.6730    5.7000   20.9510 C.ar  228  PHE228     -0.0003
    134  CE2        8.1800    6.9790   18.9770 C.ar  228  PHE228     -0.0003
    135  CZ         8.7350    5.8420   19.5720 C.ar  228  PHE228     -0.0000
    136  N          5.2450    9.1640   24.9980 N.am  229  LEU229     -0.1966
    137  CA         4.6630   10.1170   25.9340 C.3   229  LEU229      0.1728
    138  C          5.5980   11.2240   26.4020 C.2   229  LEU229      0.2616
    139  O          5.7370   11.4600   27.6010 O.2   229  LEU229     -0.2715
    140  CB         4.0280    9.3890   27.1160 C.3   229  LEU229      0.0311
    141  CG         2.7160    8.6870   26.7500 C.3   229  LEU229      0.0022
    142  CD1        2.7730    8.0360   25.3670 C.3   229  LEU229      0.0001
    143  CD2        2.3070    7.6770   27.8070 C.3   229  LEU229      0.0001
    144  N          6.1760   11.9320   25.4310 N.am  230  TRP230     -0.1974
    145  CA         7.1150   13.0280   25.6600 C.3   230  TRP230      0.1640
    146  C          6.4830   14.3230   26.1640 C.2   230  TRP230      0.2290
    147  O          5.3350   14.6200   25.8620 O.2   230  TRP230     -0.2864
    148  CB         7.8800   13.3230   24.3620 C.3   230  TRP230      0.0576
    149  CG         9.0340   14.2830   24.5260 C.ar  230  TRP230      0.0006
    150  CD1       10.2250   14.0280   25.1340 C.ar  230  TRP230      0.0946
    151  CD2        9.1140   15.6370   24.0400 C.ar  230  TRP230      0.0152
    152  NE1       11.0240   15.1380   25.0900 N.ar  230  TRP230     -0.2442
    153  CE2       10.3720   16.1410   24.4230 C.ar  230  TRP230      0.0810
    154  CE3        8.2370   16.4750   23.3290 C.ar  230  TRP230      0.0012
    155  CZ2       10.7830   17.4510   24.1230 C.ar  230  TRP230      0.0191
    156  CZ3        8.6560   17.7690   23.0130 C.ar  230  TRP230      0.0001
    157  CH2        9.9210   18.2390   23.4050 C.ar  230  TRP230      0.0015
    158  N          2.8300   10.9360   21.2320 N.3   235  LEU235     -0.1231
    159  CA         3.4580   11.0500   19.9370 C.3   235  LEU235      0.1693
    160  C          3.2700   10.0220   18.8620 C.2   235  LEU235      0.2592
    161  O          4.2350    9.6670   18.2080 O.2   235  LEU235     -0.2718
    162  CB         4.9130   11.4270   20.0830 C.3   235  LEU235      0.0284
    163  CG         4.8530   12.8600   20.6130 C.3   235  LEU235      0.0019
    164  CD1        6.2350   13.4610   20.8690 C.3   235  LEU235      0.0001
    165  CD2        4.0100   13.7390   19.6910 C.3   235  LEU235      0.0001
    166  N          2.0210    9.6500   18.5940 N.am  236  HIS236     -0.1962
    167  CA         1.6780    8.6900   17.5400 C.3   236  HIS236      0.1772
    168  C          2.2980    9.0850   16.2170 C.2   236  HIS236      0.2462
    169  O          2.8310   10.1880   16.0810 O.2   236  HIS236     -0.2730
    170  CB         0.1720    8.6190   17.3880 C.3   236  HIS236      0.0785
    171  CG        -0.5560    8.7530   18.6840 C.ar  236  HIS236      0.0821
    172  ND1       -1.2720    9.8810   19.0250 N.ar  236  HIS236     -0.2267
    173  CD2       -0.6250    7.9290   19.7580 C.ar  236  HIS236      0.1154
    174  CE1       -1.7820    9.7300   20.2330 C.ar  236  HIS236      0.1986
    175  NE2       -1.3990    8.5540   20.7030 N.ar  236  HIS236     -0.2212
    176  N          2.2480    8.1720   15.2260 N.am  237  PRO237     -0.2727
    177  CA         2.8130    8.2430   13.8620 C.3   237  PRO237      0.1402
    178  C          2.3290    9.4100   12.9850 C.2   237  PRO237      0.2269
    179  O          3.1140   10.0230   12.2530 O.2   237  PRO237     -0.2865
    180  CB         2.4100    6.9010   13.2300 C.3   237  PRO237      0.0296
    181  CG         2.0880    6.0080   14.3750 C.3   237  PRO237      0.0237
    182  CD         1.5860    6.8780   15.4860 C.3   237  PRO237      0.0939
    183  N          1.3960   16.7500   11.7710 N.3   319  TYR319     -0.1241
    184  CA         2.7760   17.2250   11.6850 C.3   319  TYR319      0.1605
    185  C          3.0340   18.2090   10.5460 C.2   319  TYR319      0.2264
    186  O          2.1170   18.5740    9.8310 O.2   319  TYR319     -0.2867
    187  CB         3.8060   16.0750   11.7570 C.3   319  TYR319      0.0534
    188  CG         3.6850   15.2070   13.0180 C.ar  319  TYR319     -0.0201
    189  CD1        3.9740   15.7400   14.2970 C.ar  319  TYR319     -0.0009
    190  CD2        3.2780   13.8650   12.9330 C.ar  319  TYR319     -0.0009
    191  CE1        3.8840   14.9690   15.4430 C.ar  319  TYR319      0.0417
    192  CE2        3.1790   13.0810   14.0770 C.ar  319  TYR319      0.0417
    193  CZ         3.4750   13.6440   15.3370 C.ar  319  TYR319      0.1957
    194  OH         3.3120   12.8910   16.4970 O.3   319  TYR319     -0.2866
@<TRIPOS>BOND
     1    50    49    1
     2    49    48    1
     3    48    47    1
     4    47    46    1
     5    33    32    1
     6    32    31    1
     7    46    43    1
     8    23    22    1
     9    23    24    1
    10    22    21    1
    11    28    27    2
    12    41    39   am
    13    43    42    1
    14    43    44    1
    15    42    36   am
    16    20    21    1
    17    20    17    1
    18    31    30    1
    19    27    26    1
    20    27    34   am
    21    29    30    1
    22    29    26    1
    23    35    36    1
    24    35    34    1
    25    35    38    1
    26    36    37    2
    27    25    26    1
    28    25    18   am
    29   186   185    2
    30    39    38    1
    31    39    40    2
    32    17    18    1
    33    17    16    1
    34    44    51   am
    35    44    45    2
    36    18    19    2
    37    56    55    1
    38    51    52    1
    39   185   184    1
    40   117   116    2
    41    71    72    1
    42    16    10   am
    43   116   115    1
    44    55    52    1
    45   184   187    1
    46   184   183    1
    47   187   188    1
    48    52    53    1
    49    75    72    1
    50    75    77    1
    51    75    76    1
    52    72    73    1
    53    11    10    2
    54    54    53    2
    55    10     9    1
    56   179   178    2
    57    53    57   am
    58   115   114    1
    59   190   188   ar
    60   190   192   ar
    61   178   177    1
    62   188   189   ar
    63   180   177    1
    64   180   181    1
    65    73    74    2
    66     9     8    1
    67     9    12    1
    68    89    88    1
    69   177   176    1
    70    57    58    1
    71   192   193   ar
    72   189   191   ar
    73   181   182    1
    74    12    13    1
    75    88    86   ar
    76    88    87   ar
    77    58    61    1
    78    58    59    1
    79    86    84   ar
    80   176   182    1
    81   176   168   am
    82   193   191   ar
    83   193   194    1
    84    61    62    1
    85    61    63    1
    86    87    85   ar
    87    15    13    1
    88    13    14    1
    89   169   168    2
    90    84    83   ar
    91    59    60    2
    92   168   167    1
    93    85    83   ar
    94   105   104    2
    95    83    82    1
    96    78    79    1
    97   170   167    1
    98   170   171    1
    99   167   166    1
   100   104   103    1
   101    79    82    1
   102    79    80    1
   103   161   160    2
   104   123   122    1
   105   123   124    1
   106   166   160   am
   107   171   172   ar
   108   171   173   ar
   109   160   159    1
   110   122   119    1
   111   134   135   ar
   112   134   132   ar
   113   172   174   ar
   114   103   106    1
   115   103   102    1
   116   106   107    1
   117     5     2    1
   118     5     6    1
   119   124   118    1
   120    80    81    2
   121   135   133   ar
   122   165   163    1
   123   173   175   ar
   124   132   130   ar
   125     2     3    1
   126     2     1    1
   127   159   162    1
   128   159   158    1
   129    64    65    1
   130   162   163    1
   131     3     4    2
   132   174   175   ar
   133     6     7    1
   134   121   120    2
   135   119   118    1
   136   119   120    1
   137   107   108   ar
   138   107   109   ar
   139   163   164    1
   140     1     7    1
   141   133   131   ar
   142   130   131   ar
   143   130   129    1
   144   108   110   ar
   145    65    66    1
   146    65    68    1
   147   109   111   ar
   148    70    68    1
   149    66    67    2
   150   125   126    1
   151   129   126    1
   152    68    69    1
   153   110   112   ar
   154   111   112   ar
   155   126   127    1
   156   156   154   ar
   157   156   157   ar
   158    90    91    1
   159   128   127    2
   160   112   113    1
   161   154   151   ar
   162   157   155   ar
   163   127   136   am
   164   151   153   ar
   165   151   149   ar
   166    94    91    1
   167    94    95    1
   168   155   153   ar
   169    91    92    1
   170   148   149    1
   171   148   145    1
   172   153   152   ar
   173   149   150   ar
   174   136   137    1
   175   152   150   ar
   176    95    96   ar
   177    95    97   ar
   178   142   141    1
   179   144   145    1
   180   144   138   am
   181    96    98   ar
   182    92    93    2
   183   145   146    1
   184   147   146    2
   185   137   138    1
   186   137   140    1
   187   138   139    2
   188    97    99   ar
   189    98   100   ar
   190   141   140    1
   191   141   143    1
   192    99   100   ar
   193   100   101    1
