@<TRIPOS>MOLECULE
tmp/3drwA00.pdb
 133 124 0 0 0
SMALL
GASTEIGER

@<TRIPOS>ATOM
      1  N         10.8170  -21.3670   -4.2430 N.3   297  ASP297     -0.1239
      2  CA        10.7140  -21.6680   -5.6640 C.3   297  ASP297      0.1674
      3  C         10.0650  -22.9760   -6.0650 C.2   297  ASP297      0.2266
      4  O          9.6170  -23.8030   -5.2420 O.2   297  ASP297     -0.2867
      5  CB        12.0460  -21.4830   -6.3480 C.3   297  ASP297      0.1410
      6  CG        13.0490  -22.5440   -6.0090 C.2   297  ASP297      0.3668
      7  OD1       12.6980  -23.6610   -5.5340 O.co2 297  ASP297     -0.2456
      8  OD2       14.2380  -22.2660   -6.2470 O.co2 297  ASP297     -0.2456
      9  N          7.7890  -18.5830   -6.3480 N.3   345  HIS345     -0.1226
     10  CA         8.3390  -17.8630   -7.5500 C.3   345  HIS345      0.1752
     11  C          8.9710  -18.8310   -8.5230 C.2   345  HIS345      0.2597
     12  O          9.6860  -19.7740   -8.1260 O.2   345  HIS345     -0.2718
     13  CB         9.3510  -16.7430   -7.2170 C.3   345  HIS345      0.0759
     14  CG        10.3260  -17.0920   -6.1180 C.ar  345  HIS345      0.0818
     15  ND1       11.5920  -17.5770   -6.3660 N.ar  345  HIS345     -0.2268
     16  CD2       10.2400  -16.9440   -4.7760 C.ar  345  HIS345      0.1154
     17  CE1       12.2270  -17.7670   -5.2230 C.ar  345  HIS345      0.1986
     18  NE2       11.4240  -17.3900   -4.2420 N.ar  345  HIS345     -0.2212
     19  N          8.7090  -18.5950   -9.8190 N.am  346  THR346     -0.1939
     20  CA         9.2410  -19.4140  -10.8730 C.3   346  THR346      0.2028
     21  C          9.6940  -18.4670  -12.0080 C.2   346  THR346      0.2642
     22  O          9.4660  -17.2710  -11.9410 O.2   346  THR346     -0.2714
     23  CB         8.1650  -20.4160  -11.4030 C.3   346  THR346      0.1808
     24  OG1        7.2550  -19.7480  -12.2720 O.3   346  THR346     -0.2208
     25  CG2        7.3280  -21.0470  -10.2660 C.3   346  THR346      0.0379
     26  N         10.3280  -18.9980  -13.0390 N.am  347  THR347     -0.1950
     27  CA        10.8700  -18.1560  -14.1180 C.3   347  THR347      0.1897
     28  C          9.7780  -17.2940  -14.6930 C.2   347  THR347      0.2313
     29  O          9.9650  -16.0680  -14.8480 O.2   347  THR347     -0.2863
     30  CB        11.5310  -19.0180  -15.2300 C.3   347  THR347      0.1794
     31  OG1       12.5460  -19.8070  -14.6170 O.3   347  THR347     -0.2208
     32  CG2       12.1820  -18.1530  -16.2920 C.3   347  THR347      0.0378
     33  N          4.6740  -15.8990  -10.7560 N.3   350  LEU350     -0.1245
     34  CA         4.6620  -15.8530   -9.2820 C.3   350  LEU350      0.1561
     35  C          3.2830  -16.2300   -8.8300 C.2   350  LEU350      0.2260
     36  O          2.2970  -15.9540   -9.5370 O.2   350  LEU350     -0.2867
     37  CB         4.8500  -14.3950   -8.7620 C.3   350  LEU350      0.0270
     38  CG         6.2350  -13.9990   -8.3580 C.3   350  LEU350      0.0019
     39  CD1        7.3860  -14.4600   -9.2930 C.3   350  LEU350      0.0001
     40  CD2        6.2820  -12.5490   -8.0010 C.3   350  LEU350      0.0001
     41  N          7.9370   -8.9190   -8.3470 N.3   373  THR373     -0.1218
     42  CA         8.6430   -9.2190   -9.6000 C.3   373  THR373      0.1862
     43  C          9.2000   -7.8910  -10.1980 C.2   373  THR373      0.2287
     44  O         10.2720   -7.8660  -10.8330 O.2   373  THR373     -0.2866
     45  CB         7.7610  -10.0140  -10.6630 C.3   373  THR373      0.1770
     46  OG1        8.5540  -10.3020  -11.8190 O.3   373  THR373     -0.2211
     47  CG2        6.5070   -9.2340  -11.1030 C.3   373  THR373      0.0375
     48  N         12.4580   -7.1250   -8.3640 N.3   376  ALA376     -0.1231
     49  CA        13.4900   -7.9760   -8.9760 C.3   376  ALA376      0.1694
     50  C         13.8710   -7.4310  -10.3460 C.2   376  ALA376      0.2591
     51  O         15.0540   -7.4100  -10.6450 O.2   376  ALA376     -0.2718
     52  CB        13.0630   -9.4720   -9.0670 C.3   376  ALA376      0.0304
     53  N         12.9020   -7.0590  -11.1990 N.am  377  ALA377     -0.1980
     54  CA        13.2290   -6.5760  -12.5550 C.3   377  ALA377      0.1597
     55  C         14.1440   -5.3370  -12.4530 C.2   377  ALA377      0.2287
     56  O         15.1290   -5.1990  -13.1850 O.2   377  ALA377     -0.2864
     57  CB        11.9250   -6.2230  -13.3980 C.3   377  ALA377      0.0319
     58  N         17.5970   -6.4780  -11.3010 N.3   380  ALA380     -0.1245
     59  CA        18.2460   -7.1860  -12.4160 C.3   380  ALA380      0.1562
     60  C         18.7260   -6.1970  -13.4680 C.2   380  ALA380      0.2260
     61  O         19.7270   -6.4290  -14.1260 O.2   380  ALA380     -0.2867
     62  CB        17.2640   -8.1620  -13.0660 C.3   380  ALA380      0.0290
     63  N          5.7980  -12.9800  -14.4890 N.3   429  THR429     -0.1203
     64  CA         6.9700  -12.2180  -14.0710 C.3   429  THR429      0.1994
     65  C          7.3330  -11.1440  -15.1470 C.2   429  THR429      0.2618
     66  O          7.0270  -11.2850  -16.3570 O.2   429  THR429     -0.2717
     67  CB         8.1770  -13.0900  -13.8920 C.3   429  THR429      0.1784
     68  OG1        8.3450  -13.8980  -15.0730 O.3   429  THR429     -0.2211
     69  CG2        8.0440  -14.0390  -12.5990 C.3   429  THR429      0.0376
     70  N          8.0100  -10.1050  -14.6820 N.am  430  ARG430     -0.1965
     71  CA         8.6750   -9.1210  -15.5540 C.3   430  ARG430      0.1729
     72  C         10.1030   -9.5520  -15.7540 C.2   430  ARG430      0.2616
     73  O         10.9330   -9.3030  -14.8930 O.2   430  ARG430     -0.2715
     74  CB         8.6660   -7.7380  -14.8690 C.3   430  ARG430      0.0348
     75  CG         7.2770   -7.1710  -14.6050 C.3   430  ARG430      0.0492
     76  CD         7.4560   -5.6360  -14.2410 C.3   430  ARG430      0.2205
     77  NE         6.1890   -4.9560  -13.8780 N.pl3 430  ARG430     -0.0865
     78  CZ         5.3650   -4.3430  -14.7190 C.cat 430  ARG430      0.5346
     79  NH1        4.2680   -3.7530  -14.2430 N.pl3 430  ARG430      0.1354
     80  NH2        5.6230   -4.2930  -16.0400 N.pl3 430  ARG430      0.1354
     81  N         10.4140  -10.2140  -16.8770 N.am  431  LEU431     -0.1963
     82  CA        11.7370  -10.7800  -17.0850 C.3   431  LEU431      0.1728
     83  C         12.5890   -9.8160  -17.8650 C.2   431  LEU431      0.2616
     84  O         12.1800   -9.3750  -18.9320 O.2   431  LEU431     -0.2715
     85  CB        11.6380  -12.1320  -17.8600 C.3   431  LEU431      0.0311
     86  CG        11.0730  -13.2840  -17.0410 C.3   431  LEU431      0.0022
     87  CD1       11.0510  -14.5400  -17.9330 C.3   431  LEU431      0.0001
     88  CD2       11.9780  -13.5630  -15.7780 C.3   431  LEU431      0.0001
     89  N         13.7640   -9.4960  -17.3300 N.am  432  VAL432     -0.1977
     90  CA        14.7360   -8.6110  -17.9930 C.3   432  VAL432      0.1596
     91  C         15.4980   -9.5220  -18.9290 C.2   432  VAL432      0.2287
     92  O         16.0910  -10.5200  -18.4890 O.2   432  VAL432     -0.2864
     93  CB        15.7000   -7.9790  -16.9360 C.3   432  VAL432      0.0276
     94  CG1       16.8780   -7.2450  -17.5890 C.3   432  VAL432      0.0022
     95  CG2       14.8880   -7.0620  -16.0320 C.3   432  VAL432      0.0022
     96  N         20.0400   -9.1300  -18.2880 N.3   435  PRO435     -0.2116
     97  CA        20.2020   -8.4670  -16.9990 C.3   435  PRO435      0.1372
     98  C         21.6700   -8.2010  -16.5970 C.2   435  PRO435      0.2244
     99  O         22.6040   -8.9140  -17.0330 O.2   435  PRO435     -0.2868
    100  CB        19.5050   -9.4400  -16.0270 C.3   435  PRO435      0.0268
    101  CG        19.8720  -10.7880  -16.6140 C.3   435  PRO435      0.0207
    102  CD        19.7160  -10.5630  -18.1110 C.3   435  PRO435      0.0892
    103  N         21.9610  -11.3480  -11.8080 N.3   438  THR438     -0.1218
    104  CA        20.8990  -12.3620  -11.6280 C.3   438  THR438      0.1862
    105  C         20.9590  -13.0700  -10.2540 C.2   438  THR438      0.2287
    106  O         19.9950  -13.7180   -9.8590 O.2   438  THR438     -0.2866
    107  CB        20.9840  -13.4770  -12.6710 C.3   438  THR438      0.1770
    108  OG1       22.3190  -13.9950  -12.6560 O.3   438  THR438     -0.2211
    109  CG2       20.6430  -12.9480  -14.0440 C.3   438  THR438      0.0375
    110  N         20.3890  -13.9380   -6.5170 N.3   440  GLY440     -0.1210
    111  CA        19.5730  -13.5110   -5.3810 C.3   440  GLY440      0.1956
    112  C         18.2370  -12.9100   -5.7800 C.2   440  GLY440      0.2612
    113  O         17.5390  -12.3800   -4.9250 O.2   440  GLY440     -0.2717
    114  N         17.8450  -13.0220   -7.0600 N.am  441  LEU441     -0.1965
    115  CA        16.5800  -12.3750   -7.4900 C.3   441  LEU441      0.1728
    116  C         15.3620  -12.9570   -6.8090 C.2   441  LEU441      0.2616
    117  O         14.3630  -12.2670   -6.5960 O.2   441  LEU441     -0.2715
    118  CB        16.4140  -12.4000   -8.9950 C.3   441  LEU441      0.0311
    119  CG        17.4220  -11.4680   -9.7300 C.3   441  LEU441      0.0022
    120  CD1       17.1110  -11.5730  -11.2450 C.3   441  LEU441      0.0001
    121  CD2       17.3340   -9.9720   -9.2990 C.3   441  LEU441      0.0001
    122  N         15.4100  -14.2510   -6.4720 N.am  442  GLY442     -0.1955
    123  CA        14.2620  -14.8430   -5.7600 C.3   442  GLY442      0.1869
    124  C         14.1180  -14.2060   -4.3720 C.2   442  GLY442      0.2309
    125  O         13.0090  -13.9530   -3.9080 O.2   442  GLY442     -0.2863
    126  N         12.4450  -10.9090   -4.8090 N.3   445  ILE445     -0.1245
    127  CA        11.0070  -11.0810   -5.0510 C.3   445  ILE445      0.1561
    128  C         10.2770  -11.2880   -3.7350 C.2   445  ILE445      0.2260
    129  O          9.2970  -10.6090   -3.4480 O.2   445  ILE445     -0.2867
    130  CB        10.6990  -12.2800   -5.9860 C.3   445  ILE445      0.0252
    131  CG1       11.1270  -11.9390   -7.4080 C.3   445  ILE445      0.0019
    132  CG2        9.1750  -12.5790   -5.9800 C.3   445  ILE445      0.0019
    133  CD1       11.1790  -13.2320   -8.3130 C.3   445  ILE445      0.0001
@<TRIPOS>BOND
     1    84    83    2
     2    91    92    2
     3    91    90    1
     4    96   102    1
     5    96    97    1
     6   102   101    1
     7    90    89    1
     8    90    93    1
     9    87    86    1
    10    83    89   am
    11    83    82    1
    12    85    82    1
    13    85    86    1
    14    94    93    1
    15    82    81    1
    16    86    88    1
    17    99    98    2
    18    97    98    1
    19    97   100    1
    20    93    95    1
    21    81    72   am
    22   101   100    1
    23    66    65    2
    24    32    30    1
    25    80    78    1
    26    72    71    1
    27    72    73    2
    28    71    74    1
    29    71    70    1
    30    30    31    1
    31    30    27    1
    32    65    70   am
    33    65    64    1
    34    68    67    1
    35    74    75    1
    36    29    28    2
    37    78    79    1
    38    78    77    2
    39    28    27    1
    40    75    76    1
    41    63    64    1
    42    76    77    1
    43    61    60    2
    44    27    26    1
    45    64    67    1
    46   109   107    1
    47    67    69    1
    48    60    59    1
    49    57    54    1
    50    56    55    2
    51    62    59    1
    52    26    21   am
    53   107   108    1
    54   107   104    1
    55    54    55    1
    56    54    53    1
    57    59    58    1
    58    24    23    1
    59    21    22    2
    60    21    20    1
    61    46    45    1
    62   103   104    1
    63   104   105    1
    64    23    20    1
    65    23    25    1
    66   120   119    1
    67    53    50   am
    68    47    45    1
    69    20    19    1
    70    44    43    2
    71    33    34    1
    72    45    42    1
    73    51    50    2
    74    50    49    1
    75   105   106    2
    76    43    42    1
    77    19    11   am
    78   119   121    1
    79   119   118    1
    80    42    41    1
    81    36    35    2
    82    39    38    1
    83    34    35    1
    84    34    37    1
    85    52    49    1
    86   118   115    1
    87    49    48    1
    88    37    38    1
    89    11    12    2
    90    11    10    1
    91    38    40    1
    92   133   131    1
    93    10    13    1
    94    10     9    1
    95   115   114    1
    96   115   116    1
    97   131   130    1
    98    13    14    1
    99   114   112   am
   100   116   117    2
   101   116   122   am
   102   110   111    1
   103   122   123    1
   104    15    14   ar
   105    15    17   ar
   106     5     6    1
   107     5     2    1
   108     8     6   ar
   109    14    16   ar
   110     3     2    1
   111     3     4    2
   112     6     7   ar
   113   130   132    1
   114   130   127    1
   115   112   111    1
   116   112   113    2
   117   123   124    1
   118     2     1    1
   119    17    18   ar
   120   127   126    1
   121   127   128    1
   122    16    18   ar
   123   124   125    2
   124   128   129    2
