@<TRIPOS>MOLECULE
tmp/3ds6A00.pdb
 177 166 0 0 0
SMALL
GASTEIGER

@<TRIPOS>ATOM
      1  N         26.7090   35.4500   64.7220 N.3    27  VAL27      -0.1245
      2  CA        26.6900   35.2330   63.2830 C.3    27  VAL27       0.1561
      3  C         25.3250   35.3800   62.5810 C.2    27  VAL27       0.2260
      4  O         25.2560   35.6440   61.3690 O.2    27  VAL27      -0.2867
      5  CB        27.2590   33.8430   62.9370 C.3    27  VAL27       0.0252
      6  CG1       28.7390   33.8100   63.1960 C.3    27  VAL27       0.0019
      7  CG2       26.5420   32.7920   63.7420 C.3    27  VAL27       0.0019
      8  N         23.2640   32.9470   62.2030 N.3    29  SER29      -0.1217
      9  CA        22.8710   31.6190   61.7380 C.3    29  SER29       0.1889
     10  C         22.1580   30.7640   62.7970 C.2    29  SER29       0.2288
     11  O         20.9680   30.4820   62.6900 O.2    29  SER29      -0.2866
     12  CB        24.0940   30.8710   61.2240 C.3    29  SER29       0.2089
     13  OG        23.7000   29.8320   60.3370 O.3    29  SER29      -0.2183
     14  N         24.7120   26.3570   63.6610 N.3    32  TYR32      -0.1241
     15  CA        25.9970   25.8000   64.0590 C.3    32  TYR32       0.1605
     16  C         26.1750   25.7830   65.5700 C.2    32  TYR32       0.2264
     17  O         27.2140   25.3400   66.0800 O.2    32  TYR32      -0.2867
     18  CB        27.1050   26.6300   63.4260 C.3    32  TYR32       0.0534
     19  CG        26.9600   26.7600   61.9350 C.ar   32  TYR32      -0.0201
     20  CD1       27.3860   25.7500   61.0820 C.ar   32  TYR32      -0.0009
     21  CD2       26.3610   27.8870   61.3750 C.ar   32  TYR32      -0.0009
     22  CE1       27.2230   25.8610   59.7180 C.ar   32  TYR32       0.0417
     23  CE2       26.1870   28.0110   60.0140 C.ar   32  TYR32       0.0417
     24  CZ        26.6200   26.9950   59.1840 C.ar   32  TYR32       0.1957
     25  OH        26.4400   27.1170   57.8180 O.3    32  TYR32      -0.2866
     26  N         27.3080   30.8320   68.2000 N.3    35  VAL35      -0.1245
     27  CA        28.6340   31.1580   67.6960 C.3    35  VAL35       0.1561
     28  C         28.8570   32.6250   67.3370 C.2    35  VAL35       0.2260
     29  O         28.0380   33.2470   66.6540 O.2    35  VAL35      -0.2867
     30  CB        28.9190   30.2720   66.4500 C.3    35  VAL35       0.0252
     31  CG1       30.2530   30.6180   65.8310 C.3    35  VAL35       0.0019
     32  CG2       28.8500   28.7960   66.8430 C.3    35  VAL35       0.0019
     33  N         36.3400   32.3820   65.1370 N.3    48  ALA48      -0.1245
     34  CA        34.9490   32.0490   65.3610 C.3    48  ALA48       0.1562
     35  C         34.8660   31.2800   66.6930 C.2    48  ALA48       0.2260
     36  O         35.3500   30.1530   66.8050 O.2    48  ALA48      -0.2867
     37  CB        34.4180   31.2030   64.2130 C.3    48  ALA48       0.0290
     38  N         32.6800   29.4440   69.6580 N.3    50  LYS50      -0.1245
     39  CA        31.4070   28.7610   69.8620 C.3    50  LYS50       0.1561
     40  C         31.2510   28.2410   71.2750 C.2    50  LYS50       0.2260
     41  O         32.0070   27.3510   71.6940 O.2    50  LYS50      -0.2867
     42  CB        31.2830   27.5740   68.9240 C.3    50  LYS50       0.0271
     43  CG        30.1210   26.6370   69.2400 C.3    50  LYS50       0.0035
     44  CD        30.4190   25.3030   68.6260 C.3    50  LYS50       0.0206
     45  CE        29.1970   24.4310   68.5010 C.3    50  LYS50       0.1093
     46  NZ        29.5420   23.2120   67.7140 N.3    50  LYS50      -0.1314
     47  N         33.1530   15.6570   70.0400 N.3    68  GLU68      -0.1245
     48  CA        33.4650   16.7730   69.1640 C.3    68  GLU68       0.1567
     49  C         34.8420   17.3530   69.4370 C.2    68  GLU68       0.2260
     50  O         35.5970   17.6300   68.5080 O.2    68  GLU68      -0.2867
     51  CB        32.4400   17.8770   69.3180 C.3    68  GLU68       0.0388
     52  CG        32.7700   19.1050   68.4890 C.3    68  GLU68       0.1160
     53  CD        31.6500   20.1160   68.4790 C.2    68  GLU68       0.3649
     54  OE1       31.7860   21.1130   67.7440 O.co2  68  GLU68      -0.2457
     55  OE2       30.6370   19.9180   69.2010 O.co2  68  GLU68      -0.2457
     56  N         37.5670   15.1370   68.1680 N.3    71  LEU71      -0.1231
     57  CA        37.6570   15.3580   66.7290 C.3    71  LEU71       0.1693
     58  C         38.3380   16.6480   66.3370 C.2    71  LEU71       0.2591
     59  O         39.1740   16.6390   65.4420 O.2    71  LEU71      -0.2718
     60  CB        36.2660   15.3360   66.0900 C.3    71  LEU71       0.0284
     61  CG        35.6450   13.9610   65.8350 C.3    71  LEU71       0.0019
     62  CD1       34.1750   14.1080   65.5340 C.3    71  LEU71       0.0001
     63  CD2       36.3540   13.2900   64.6750 C.3    71  LEU71       0.0001
     64  N         37.9760   17.7540   66.9870 N.am   72  LEU72      -0.1980
     65  CA        38.5620   19.0580   66.6710 C.3    72  LEU72       0.1596
     66  C         40.0440   19.1430   66.9870 C.2    72  LEU72       0.2287
     67  O         40.8160   19.6640   66.1840 O.2    72  LEU72      -0.2864
     68  CB        37.8390   20.1700   67.4120 C.3    72  LEU72       0.0297
     69  CG        36.4060   20.5270   67.0480 C.3    72  LEU72       0.0022
     70  CD1       35.8640   21.5030   68.0650 C.3    72  LEU72       0.0001
     71  CD2       36.3570   21.1160   65.6660 C.3    72  LEU72       0.0001
     72  N         37.9180   22.2710   59.5840 N.3    81  ILE81      -0.1245
     73  CA        37.9160   23.2070   60.6990 C.3    81  ILE81       0.1561
     74  C         38.7390   22.5750   61.8190 C.2    81  ILE81       0.2260
     75  O         38.6980   21.3670   62.0510 O.2    81  ILE81      -0.2867
     76  CB        36.4600   23.5390   61.1790 C.3    81  ILE81       0.0252
     77  CG1       36.4160   24.9220   61.8330 C.3    81  ILE81       0.0019
     78  CG2       35.9770   22.5120   62.1930 C.3    81  ILE81       0.0019
     79  CD1       36.4780   26.0730   60.8650 C.3    81  ILE81       0.0001
     80  N         34.9200   26.9100   72.1540 N.3   101  LEU101     -0.1245
     81  CA        35.8150   26.4930   71.0910 C.3   101  LEU101      0.1561
     82  C         36.1640   27.6690   70.1910 C.2   101  LEU101      0.2260
     83  O         35.3890   28.6040   70.0420 O.2   101  LEU101     -0.2867
     84  CB        35.1680   25.3780   70.2800 C.3   101  LEU101      0.0270
     85  CG        35.0450   24.1240   71.1250 C.3   101  LEU101      0.0019
     86  CD1       33.9640   23.1790   70.5920 C.3   101  LEU101      0.0001
     87  CD2       36.4120   23.4850   71.1120 C.3   101  LEU101      0.0001
     88  N         38.0200   28.6990   66.3300 N.3   103  THR103     -0.1203
     89  CA        38.5180   28.2700   65.0340 C.3   103  THR103      0.1994
     90  C         38.6670   29.4930   64.1460 C.2   103  THR103      0.2618
     91  O         38.2780   30.5950   64.5170 O.2   103  THR103     -0.2717
     92  CB        37.5310   27.3150   64.3240 C.3   103  THR103      0.1784
     93  OG1       36.4050   28.0630   63.8400 O.3   103  THR103     -0.2211
     94  CG2       37.0480   26.2540   65.2680 C.3   103  THR103      0.0376
     95  N         39.2490   29.2790   62.9740 N.am  104  HIS104     -0.1961
     96  CA        39.3740   30.3360   61.9990 C.3   104  HIS104      0.1787
     97  C         37.9420   30.6500   61.6210 C.2   104  HIS104      0.2620
     98  O         37.0530   29.7990   61.7350 O.2   104  HIS104     -0.2715
     99  CB        40.0900   29.8440   60.7600 C.3   104  HIS104      0.0785
    100  CG        41.5740   29.8490   60.8840 C.ar  104  HIS104      0.0821
    101  ND1       42.3250   28.6920   60.8920 N.ar  104  HIS104     -0.2267
    102  CD2       42.4530   30.8730   61.0030 C.ar  104  HIS104      0.1154
    103  CE1       43.6030   29.0050   61.0110 C.ar  104  HIS104      0.1986
    104  NE2       43.7090   30.3210   61.0800 N.ar  104  HIS104     -0.2212
    105  N         37.7350   31.8730   61.1560 N.am  105  LEU105     -0.1963
    106  CA        36.4340   32.3500   60.7500 C.3   105  LEU105      0.1728
    107  C         36.4080   32.4060   59.2380 C.2   105  LEU105      0.2616
    108  O         37.4220   32.6080   58.5990 O.2   105  LEU105     -0.2715
    109  CB        36.2130   33.7520   61.3160 C.3   105  LEU105      0.0311
    110  CG        34.9420   34.5310   60.9740 C.3   105  LEU105      0.0022
    111  CD1       33.7490   33.8870   61.6560 C.3   105  LEU105      0.0001
    112  CD2       35.1010   35.9630   61.4310 C.3   105  LEU105      0.0001
    113  N         35.2250   32.2240   58.6760 N.am  106  MET106     -0.1963
    114  CA        35.0180   32.2690   57.2410 C.3   106  MET106      0.1736
    115  C         33.8570   33.2550   57.0300 C.2   106  MET106      0.2617
    116  O         33.9100   34.1120   56.1360 O.2   106  MET106     -0.2715
    117  CB        34.6450   30.8760   56.7210 C.3   106  MET106      0.0427
    118  CG        35.6160   29.7530   57.1020 C.3   106  MET106      0.0599
    119  SD        37.2900   29.9440   56.4430 S.3   106  MET106     -0.1393
    120  CE        37.2530   28.9100   54.9740 C.3   106  MET106      0.0692
    121  N         32.8140   33.1230   57.8560 N.am  107  GLY107     -0.1940
    122  CA        31.6710   34.0190   57.7840 C.3   107  GLY107      0.2014
    123  C         30.4990   33.5540   56.9510 C.2   107  GLY107      0.2639
    124  O         29.3890   34.0600   57.0860 O.2   107  GLY107     -0.2714
    125  N         30.7340   32.5900   56.0760 N.am  108  ALA108     -0.1963
    126  CA        29.6690   32.0820   55.2240 C.3   108  ALA108      0.1728
    127  C         29.8460   30.6000   54.9540 C.2   108  ALA108      0.2616
    128  O         30.8310   29.9890   55.3560 O.2   108  ALA108     -0.2715
    129  CB        29.6270   32.8570   53.9030 C.3   108  ALA108      0.0334
    130  N         28.8600   30.0340   54.2750 N.am  109  ASP109     -0.1971
    131  CA        28.8760   28.6350   53.9250 C.3   109  ASP109      0.1709
    132  C         28.4450   28.5270   52.4800 C.2   109  ASP109      0.2293
    133  O         27.7920   29.4210   51.9630 O.2   109  ASP109     -0.2864
    134  CB        27.9320   27.8500   54.8360 C.3   109  ASP109      0.1436
    135  CG        26.4840   28.3110   54.7320 C.2   109  ASP109      0.3671
    136  OD1       25.9040   28.2060   53.6280 O.co2 109  ASP109     -0.2456
    137  OD2       25.9250   28.7660   55.7610 O.co2 109  ASP109     -0.2456
    138  N         32.1840   25.7640   55.1700 N.3   154  ALA154     -0.1245
    139  CA        32.4400   27.1380   55.5810 C.3   154  ALA154      0.1562
    140  C         33.3720   27.7150   54.5470 C.2   154  ALA154      0.2260
    141  O         34.4810   27.2270   54.3820 O.2   154  ALA154     -0.2867
    142  CB        33.1030   27.1590   56.9230 C.3   154  ALA154      0.0290
    143  N         32.9640   21.2670   57.9040 N.3   164  LEU164     -0.1231
    144  CA        32.5140   21.3190   59.2960 C.3   164  LEU164      0.1693
    145  C         31.6750   20.1040   59.6350 C.2   164  LEU164      0.2592
    146  O         31.3360   19.3270   58.7690 O.2   164  LEU164     -0.2718
    147  CB        31.6490   22.5560   59.5370 C.3   164  LEU164      0.0284
    148  CG        32.0490   23.8970   58.9250 C.3   164  LEU164      0.0019
    149  CD1       30.9250   24.8320   59.1480 C.3   164  LEU164      0.0001
    150  CD2       33.3160   24.4520   59.5350 C.3   164  LEU164      0.0001
    151  N         31.3340   19.9650   60.9060 N.am  165  ASP165     -0.1960
    152  CA        30.4930   18.8750   61.4120 C.3   165  ASP165      0.1840
    153  C         30.7870   17.4380   60.9990 C.2   165  ASP165      0.2622
    154  O         29.8730   16.6400   60.8240 O.2   165  ASP165     -0.2715
    155  CB        29.0210   19.1920   61.1310 C.3   165  ASP165      0.1450
    156  CG        28.3960   20.0900   62.2080 C.2   165  ASP165      0.3671
    157  OD1       28.9360   21.1930   62.4910 O.co2 165  ASP165     -0.2456
    158  OD2       27.3530   19.6870   62.7800 O.co2 165  ASP165     -0.2456
    159  N         32.0580   17.0900   60.8740 N.am  166  PHE166     -0.1974
    160  CA        32.3830   15.7280   60.5050 C.3   166  PHE166      0.1639
    161  C         32.4000   14.7750   61.6890 C.2   166  PHE166      0.2290
    162  O         32.6420   15.1640   62.8340 O.2   166  PHE166     -0.2864
    163  CB        33.7260   15.6600   59.7650 C.3   166  PHE166      0.0560
    164  CG        34.8400   16.3980   60.4450 C.ar  166  PHE166     -0.0200
    165  CD1       35.5140   15.8440   61.5040 C.ar  166  PHE166     -0.0042
    166  CD2       35.1760   17.6700   60.0460 C.ar  166  PHE166     -0.0042
    167  CE1       36.4980   16.5500   62.1570 C.ar  166  PHE166     -0.0003
    168  CE2       36.1470   18.3730   60.6900 C.ar  166  PHE166     -0.0003
    169  CZ        36.8120   17.8160   61.7530 C.ar  166  PHE166     -0.0000
    170  N         30.1160   13.3360   63.4600 N.3   168  LEU168     -0.1245
    171  CA        29.1970   13.4690   64.5720 C.3   168  LEU168      0.1561
    172  C         27.9850   12.5730   64.4810 C.2   168  LEU168      0.2260
    173  O         27.0210   12.8910   63.7980 O.2   168  LEU168     -0.2867
    174  CB        28.7510   14.9210   64.7310 C.3   168  LEU168      0.0270
    175  CG        29.8690   15.8560   65.1960 C.3   168  LEU168      0.0019
    176  CD1       29.2790   17.1630   65.6410 C.3   168  LEU168      0.0001
    177  CD2       30.6270   15.2210   66.3390 C.3   168  LEU168      0.0001
@<TRIPOS>BOND
     1   133   132    2
     2   132   131    1
     3   136   135   ar
     4   129   126    1
     5   131   130    1
     6   131   134    1
     7   130   127   am
     8   141   140    2
     9   140   139    1
    10   135   134    1
    11   135   137   ar
    12   127   126    1
    13   127   128    2
    14   120   119    1
    15   138   139    1
    16   126   125    1
    17   139   142    1
    18   125   123   am
    19   116   115    2
    20   119   118    1
    21   117   118    1
    22   117   114    1
    23   123   124    2
    24   123   122    1
    25   115   114    1
    26   115   121   am
    27   114   113    1
    28   122   121    1
    29    25    24    1
    30   143   144    1
    31   108   107    2
    32   113   107   am
    33   146   145    2
    34   148   149    1
    35   148   150    1
    36   148   147    1
    37    24    22   ar
    38    24    23   ar
    39   107   106    1
    40   144   147    1
    41   144   145    1
    42    72    73    1
    43   145   151   am
    44    22    20   ar
    45   163   164    1
    46   163   160    1
    47    23    21   ar
    48   166   164   ar
    49   166   168   ar
    50    13    12    1
    51   164   165   ar
    52   160   159    1
    53   160   161    1
    54   168   169   ar
    55    73    76    1
    56    73    74    1
    57   106   105    1
    58   106   109    1
    59    99   100    1
    60    99    96    1
    61   154   153    2
    62    79    77    1
    63   159   153   am
    64   100   101   ar
    65   100   102   ar
    66   101   103   ar
    67   151   152    1
    68   110   109    1
    69   110   112    1
    70   110   111    1
    71   153   152    1
    72   102   104   ar
    73   103   104   ar
    74    20    19   ar
    75   155   152    1
    76   155   156    1
    77   105    97   am
    78    76    77    1
    79    76    78    1
    80    12     9    1
    81     4     3    2
    82    21    19   ar
    83   165   167   ar
    84    97    98    2
    85    97    96    1
    86   161   162    2
    87     9     8    1
    88     9    10    1
    89   169   167   ar
    90    74    75    2
    91    19    18    1
    92    96    95    1
    93   156   157   ar
    94   156   158   ar
    95     3     2    1
    96    11    10    2
    97     5     6    1
    98     5     2    1
    99     5     7    1
   100    95    90   am
   101     2     1    1
   102    18    15    1
   103   170   171    1
   104    14    15    1
   105   173   172    2
   106    93    92    1
   107    15    16    1
   108    90    91    2
   109    90    89    1
   110    37    34    1
   111    92    89    1
   112    92    94    1
   113   172   171    1
   114   171   174    1
   115    63    61    1
   116   174   175    1
   117    89    88    1
   118    33    34    1
   119   175   176    1
   120   175   177    1
   121    34    35    1
   122    59    58    2
   123    62    61    1
   124    16    17    2
   125    71    69    1
   126    31    30    1
   127    61    60    1
   128    60    57    1
   129    67    66    2
   130    58    57    1
   131    58    64   am
   132    30    32    1
   133    30    27    1
   134    29    28    2
   135    65    66    1
   136    65    64    1
   137    65    68    1
   138    35    36    2
   139    57    56    1
   140    69    68    1
   141    69    70    1
   142    28    27    1
   143    27    26    1
   144    46    45    1
   145    54    53   ar
   146    53    52    1
   147    53    55   ar
   148    52    51    1
   149    45    44    1
   150    50    49    2
   151    44    43    1
   152    42    43    1
   153    42    39    1
   154    48    51    1
   155    48    49    1
   156    48    47    1
   157    38    39    1
   158    39    40    1
   159    83    82    2
   160    82    81    1
   161    84    81    1
   162    84    85    1
   163    86    85    1
   164    81    80    1
   165    87    85    1
   166    40    41    2
