@<TRIPOS>MOLECULE
tmp/3ds9A00.pdb
 239 231 0 0 0
SMALL
GASTEIGER

@<TRIPOS>ATOM
      1  N          3.6910   38.6280  -22.8490 N.3    62  LYS62      -0.1245
      2  CA         3.5190   39.7610  -21.9480 C.3    62  LYS62       0.1561
      3  C          4.4520   39.5930  -20.7520 C.2    62  LYS62       0.2260
      4  O          5.1120   38.5650  -20.6070 O.2    62  LYS62      -0.2867
      5  CB         2.0710   39.8390  -21.4650 C.3    62  LYS62       0.0271
      6  CG         1.0440   39.8530  -22.5950 C.3    62  LYS62       0.0035
      7  CD         1.2080   41.0710  -23.5050 C.3    62  LYS62       0.0206
      8  CE         0.8710   42.3630  -22.7730 C.3    62  LYS62       0.1093
      9  NZ         0.8420   43.5490  -23.6800 N.3    62  LYS62      -0.1314
     10  N          2.9660   42.6030  -14.4410 N.3    65  PRO65      -0.2102
     11  CA         2.1470   41.6840  -13.6550 C.3    65  PRO65       0.1504
     12  C          1.0200   41.0510  -14.4660 C.2    65  PRO65       0.2576
     13  O          0.0480   40.5760  -13.8790 O.2    65  PRO65      -0.2718
     14  CB         1.5390   42.5990  -12.5870 C.3    65  PRO65       0.0282
     15  CG         1.8400   44.0390  -13.0400 C.3    65  PRO65       0.0208
     16  CD         2.4000   43.9590  -14.4160 C.3    65  PRO65       0.0893
     17  N          1.1450   41.0580  -15.7920 N.am   66  VAL66      -0.1966
     18  CA         0.1310   40.4800  -16.6650 C.3    66  VAL66       0.1727
     19  C          0.3430   38.9710  -16.8080 C.2    66  VAL66       0.2616
     20  O         -0.5970   38.1900  -16.7040 O.2    66  VAL66      -0.2715
     21  CB         0.1650   41.1250  -18.0580 C.3    66  VAL66       0.0290
     22  CG1       -0.8250   40.4450  -18.9830 C.3    66  VAL66       0.0023
     23  CG2       -0.1150   42.6390  -17.9590 C.3    66  VAL66       0.0023
     24  N          1.5890   38.5670  -17.0420 N.am   67  SER67      -0.1950
     25  CA         1.9200   37.1540  -17.1990 C.3    67  SER67       0.1924
     26  C          3.2290   36.8550  -16.4710 C.2    67  SER67       0.2314
     27  O          3.9900   37.7660  -16.1400 O.2    67  SER67      -0.2863
     28  CB         2.0910   36.7990  -18.6890 C.3    67  SER67       0.2116
     29  OG         0.8890   36.9710  -19.4310 O.3    67  SER67      -0.2180
     30  N          1.6550   30.2000  -18.8970 N.3   155  ASP155     -0.1239
     31  CA         1.5370   31.4350  -18.1350 C.3   155  ASP155      0.1674
     32  C          1.1360   31.0640  -16.7250 C.2   155  ASP155      0.2266
     33  O         -0.0180   30.7250  -16.4710 O.2   155  ASP155     -0.2867
     34  CB         0.4900   32.3740  -18.7490 C.3   155  ASP155      0.1410
     35  CG         0.4600   33.7320  -18.0720 C.2   155  ASP155      0.3668
     36  OD1        1.0800   33.8910  -16.9980 O.co2 155  ASP155     -0.2456
     37  OD2       -0.1690   34.6500  -18.6220 O.co2 155  ASP155     -0.2456
     38  N          0.4760   32.5490  -14.1000 N.3   157  ILE157     -0.1231
     39  CA        -0.5650   33.2730  -13.3790 C.3   157  ILE157      0.1692
     40  C         -1.8910   33.3880  -14.1380 C.2   157  ILE157      0.2592
     41  O         -2.7910   34.1290  -13.7250 O.2   157  ILE157     -0.2718
     42  CB        -0.0830   34.6610  -12.8880 C.3   157  ILE157      0.0266
     43  CG1        0.4920   35.4850  -14.0420 C.3   157  ILE157      0.0019
     44  CG2        0.9440   34.4900  -11.7630 C.3   157  ILE157      0.0020
     45  CD1        0.7700   36.9580  -13.6700 C.3   157  ILE157      0.0001
     46  N         -2.0240   32.6400  -15.2310 N.am  158  GLN158     -0.1966
     47  CA        -3.3020   32.5970  -15.9430 C.3   158  GLN158      0.1733
     48  C         -4.2170   31.5410  -15.3290 C.2   158  GLN158      0.2616
     49  O         -4.2770   30.4020  -15.8050 O.2   158  GLN158     -0.2715
     50  CB        -3.0910   32.3350  -17.4400 C.3   158  GLN158      0.0408
     51  CG        -4.4000   32.1110  -18.1880 C.3   158  GLN158      0.0908
     52  CD        -4.2780   32.3320  -19.6810 C.2   158  GLN158      0.2608
     53  OE1       -4.0460   33.4500  -20.1370 O.2   158  GLN158     -0.2717
     54  NE2       -4.4500   31.2650  -20.4520 N.am  158  GLN158     -0.0878
     55  N         -4.9200   31.9120  -14.2590 N.am  159  PHE159     -0.1960
     56  CA        -5.8500   30.9970  -13.6150 C.3   159  PHE159      0.1771
     57  C         -7.1760   31.0810  -14.3570 C.2   159  PHE159      0.2619
     58  O         -7.5560   32.1570  -14.8170 O.2   159  PHE159     -0.2715
     59  CB        -6.0860   31.3830  -12.1490 C.3   159  PHE159      0.0574
     60  CG        -4.8310   31.5090  -11.3330 C.ar  159  PHE159     -0.0200
     61  CD1       -3.6630   30.8670  -11.7160 C.ar  159  PHE159     -0.0042
     62  CD2       -4.8310   32.2530  -10.1570 C.ar  159  PHE159     -0.0042
     63  CE1       -2.5030   30.9760  -10.9460 C.ar  159  PHE159     -0.0003
     64  CE2       -3.6820   32.3600   -9.3850 C.ar  159  PHE159     -0.0003
     65  CZ        -2.5220   31.7210   -9.7830 C.ar  159  PHE159     -0.0000
     66  N         -7.8800   29.9540  -14.4540 N.am  160  GLU160     -0.1977
     67  CA        -9.1140   29.8740  -15.2400 C.3   160  GLU160      0.1602
     68  C         -9.7170   28.4810  -15.1770 C.2   160  GLU160      0.2287
     69  O         -9.0360   27.5070  -14.8430 O.2   160  GLU160     -0.2864
     70  CB        -8.8030   30.1940  -16.7030 C.3   160  GLU160      0.0415
     71  CG        -7.7740   29.2540  -17.2830 C.3   160  GLU160      0.1163
     72  CD        -7.3780   29.6000  -18.7060 C.2   160  GLU160      0.3649
     73  OE1       -8.1440   30.3150  -19.3930 O.co2 160  GLU160     -0.2457
     74  OE2       -6.2930   29.1490  -19.1330 O.co2 160  GLU160     -0.2457
     75  N         -1.2910   38.3130   -6.1700 N.3   190  PHE190     -0.1241
     76  CA        -1.2880   39.5630   -6.9140 C.3   190  PHE190      0.1605
     77  C         -1.4260   40.7480   -5.9800 C.2   190  PHE190      0.2264
     78  O         -2.1170   40.6720   -4.9620 O.2   190  PHE190     -0.2867
     79  CB        -2.4620   39.5630   -7.8880 C.3   190  PHE190      0.0534
     80  CG        -2.5560   38.3060   -8.7140 C.ar  190  PHE190     -0.0203
     81  CD1       -3.3500   37.2460   -8.3020 C.ar  190  PHE190     -0.0042
     82  CD2       -1.8450   38.1860   -9.8980 C.ar  190  PHE190     -0.0042
     83  CE1       -3.4350   36.0820   -9.0600 C.ar  190  PHE190     -0.0003
     84  CE2       -1.9260   37.0230  -10.6610 C.ar  190  PHE190     -0.0003
     85  CZ        -2.7220   35.9740  -10.2390 C.ar  190  PHE190     -0.0000
     86  N         -3.5410   40.0860   -2.6500 N.3   200  THR200     -0.1218
     87  CA        -4.7860   39.3310   -2.6880 C.3   200  THR200      0.1862
     88  C         -4.6270   38.0300   -1.9000 C.2   200  THR200      0.2287
     89  O         -3.6440   37.3160   -2.0640 O.2   200  THR200     -0.2866
     90  CB        -5.1670   38.9860   -4.1460 C.3   200  THR200      0.1770
     91  OG1       -5.3280   40.2000   -4.8960 O.3   200  THR200     -0.2211
     92  CG2       -6.4730   38.2040   -4.1930 C.3   200  THR200      0.0375
     93  N         -9.0010   34.2000   -4.5500 N.3   205  THR205     -0.1218
     94  CA        -8.6660   33.8540   -5.9280 C.3   205  THR205      0.1862
     95  C         -9.2080   32.4700   -6.2890 C.2   205  THR205      0.2287
     96  O         -9.8740   32.3070   -7.3190 O.2   205  THR205     -0.2866
     97  CB        -7.1400   33.9130   -6.1300 C.3   205  THR205      0.1770
     98  OG1       -6.6710   35.2130   -5.7350 O.3   205  THR205     -0.2211
     99  CG2       -6.7630   33.6580   -7.5820 C.3   205  THR205      0.0375
    100  N        -12.9880   32.4310   -6.4550 N.3   208  HIS208     -0.1226
    101  CA       -13.4280   33.0680   -7.6910 C.3   208  HIS208      0.1752
    102  C        -13.5340   32.0080   -8.7790 C.2   208  HIS208      0.2595
    103  O        -14.5250   31.9660   -9.5050 O.2   208  HIS208     -0.2718
    104  CB       -12.4630   34.1910   -8.0980 C.3   208  HIS208      0.0759
    105  CG       -12.7780   34.8300   -9.4200 C.ar  208  HIS208      0.0818
    106  ND1      -13.3940   36.0590   -9.5290 N.ar  208  HIS208     -0.2268
    107  CD2      -12.5290   34.4210  -10.6860 C.ar  208  HIS208      0.1154
    108  CE1      -13.5260   36.3740  -10.8070 C.ar  208  HIS208      0.1986
    109  NE2      -13.0080   35.3970  -11.5290 N.ar  208  HIS208     -0.2212
    110  N        -12.5380   31.1340   -8.8710 N.am  209  GLU209     -0.1979
    111  CA       -12.5850   30.0520   -9.8670 C.3   209  GLU209      0.1602
    112  C        -13.6530   29.0130   -9.5370 C.2   209  GLU209      0.2287
    113  O        -14.3170   28.4790  -10.4330 O.2   209  GLU209     -0.2864
    114  CB       -11.2190   29.3760  -10.0230 C.3   209  GLU209      0.0415
    115  CG       -10.1680   30.2930  -10.5980 C.3   209  GLU209      0.1163
    116  CD       -10.6630   31.0380  -11.8230 C.2   209  GLU209      0.3649
    117  OE1      -11.3880   30.4420  -12.6540 O.co2 209  GLU209     -0.2457
    118  OE2      -10.3380   32.2360  -11.9380 O.co2 209  GLU209     -0.2457
    119  N        -16.9480   30.2010  -10.7660 N.3   212  HIS212     -0.1241
    120  CA       -17.0370   29.8990  -12.1970 C.3   212  HIS212      0.1621
    121  C        -17.3680   28.4260  -12.3730 C.2   212  HIS212      0.2264
    122  O        -18.2360   28.0590  -13.1740 O.2   212  HIS212     -0.2867
    123  CB       -15.7100   30.1710  -12.9170 C.3   212  HIS212      0.0745
    124  CG       -15.4580   31.6160  -13.2370 C.ar  212  HIS212      0.0817
    125  ND1      -16.3490   32.3940  -13.9410 N.ar  212  HIS212     -0.2268
    126  CD2      -14.3830   32.4010  -12.9960 C.ar  212  HIS212      0.1154
    127  CE1      -15.8470   33.6090  -14.0920 C.ar  212  HIS212      0.1986
    128  NE2      -14.6530   33.6370  -13.5330 N.ar  212  HIS212     -0.2212
    129  N        -21.2120   40.6530  -23.4080 N.3   227  VAL227     -0.1245
    130  CA       -20.2220   41.4860  -22.7490 C.3   227  VAL227      0.1561
    131  C        -20.7390   42.8810  -22.4370 C.2   227  VAL227      0.2260
    132  O        -21.7310   43.3380  -23.0040 O.2   227  VAL227     -0.2867
    133  CB       -18.9300   41.6110  -23.5880 C.3   227  VAL227      0.0252
    134  CG1      -18.3370   40.2450  -23.8540 C.3   227  VAL227      0.0019
    135  CG2      -19.2010   42.3490  -24.9000 C.3   227  VAL227      0.0019
    136  N        -16.6190   48.4810  -21.2420 N.3   230  VAL230     -0.1245
    137  CA       -16.2600   49.1320  -19.9870 C.3   230  VAL230      0.1561
    138  C        -16.1370   50.6500  -20.1350 C.2   230  VAL230      0.2260
    139  O        -15.3820   51.1490  -20.9750 O.2   230  VAL230     -0.2867
    140  CB       -14.9800   48.5190  -19.3820 C.3   230  VAL230      0.0252
    141  CG1      -14.6060   49.2300  -18.0950 C.3   230  VAL230      0.0019
    142  CG2      -15.1650   47.0190  -19.1430 C.3   230  VAL230      0.0019
    143  N        -11.9390   48.2310  -24.2240 N.3   237  LEU237     -0.1231
    144  CA       -12.0560   47.1090  -23.2950 C.3   237  LEU237      0.1693
    145  C        -13.4770   46.6080  -23.0450 C.2   237  LEU237      0.2592
    146  O        -14.4110   47.3940  -22.8810 O.2   237  LEU237     -0.2718
    147  CB       -11.3660   47.4530  -21.9710 C.3   237  LEU237      0.0284
    148  CG        -9.8550   47.6640  -22.1220 C.3   237  LEU237      0.0019
    149  CD1       -9.1940   47.9600  -20.7910 C.3   237  LEU237      0.0001
    150  CD2       -9.2250   46.4390  -22.7660 C.3   237  LEU237      0.0001
    151  N        -13.6160   45.2840  -23.0090 N.am  238  GLU238     -0.1966
    152  CA       -14.8810   44.6350  -22.6990 C.3   238  GLU238      0.1733
    153  C        -14.7050   43.6910  -21.5120 C.2   238  GLU238      0.2616
    154  O        -13.5910   43.2770  -21.1920 O.2   238  GLU238     -0.2715
    155  CB       -15.4020   43.8650  -23.9180 C.3   238  GLU238      0.0429
    156  CG       -15.8910   44.7690  -25.0540 C.3   238  GLU238      0.1163
    157  CD       -16.1560   44.0180  -26.3520 C.2   238  GLU238      0.3649
    158  OE1      -15.7560   42.8420  -26.4590 O.co2 238  GLU238     -0.2457
    159  OE2      -16.7640   44.6130  -27.2690 O.co2 238  GLU238     -0.2457
    160  N        -15.8090   43.3740  -20.8540 N.am  239  VAL239     -0.1963
    161  CA       -15.8190   42.3870  -19.7830 C.3   239  VAL239      0.1727
    162  C        -17.0670   41.5280  -19.9400 C.2   239  VAL239      0.2616
    163  O        -18.1330   42.0340  -20.2770 O.2   239  VAL239     -0.2715
    164  CB       -15.7950   43.0590  -18.3960 C.3   239  VAL239      0.0290
    165  CG1      -17.1320   43.7460  -18.1160 C.3   239  VAL239      0.0023
    166  CG2      -15.4610   42.0300  -17.3050 C.3   239  VAL239      0.0023
    167  N        -16.9480   40.2200  -19.7210 N.am  240  SER240     -0.1950
    168  CA       -18.0870   39.3510  -19.9330 C.3   240  SER240      0.1924
    169  C        -19.0450   39.4870  -18.7620 C.2   240  SER240      0.2314
    170  O        -18.6180   39.7530  -17.6480 O.2   240  SER240     -0.2863
    171  CB       -17.6400   37.8970  -20.0720 C.3   240  SER240      0.2116
    172  OG       -17.0560   37.4450  -18.8650 O.3   240  SER240     -0.2180
    173  N        -18.1480   37.2090  -15.9140 N.3   243  GLU243     -0.1245
    174  CA       -17.1550   37.6960  -14.9550 C.3   243  GLU243      0.1567
    175  C        -17.7660   38.7130  -13.9870 C.2   243  GLU243      0.2260
    176  O        -17.5030   38.6660  -12.7930 O.2   243  GLU243     -0.2867
    177  CB       -15.9350   38.2910  -15.6630 C.3   243  GLU243      0.0388
    178  CG       -15.0500   37.2510  -16.3250 C.3   243  GLU243      0.1160
    179  CD       -14.2690   36.4320  -15.3190 C.2   243  GLU243      0.3649
    180  OE1      -14.3400   36.7350  -14.1060 O.co2 243  GLU243     -0.2457
    181  OE2      -13.5640   35.4920  -15.7370 O.co2 243  GLU243     -0.2457
    182  N         -9.8560   43.9210   -3.8680 N.3   344  ARG344     -0.1245
    183  CA       -10.3970   44.8410   -4.8600 C.3   344  ARG344      0.1563
    184  C        -11.8970   44.9590   -4.6080 C.2   344  ARG344      0.2260
    185  O        -12.5420   43.9960   -4.2000 O.2   344  ARG344     -0.2867
    186  CB       -10.1180   44.3150   -6.2810 C.3   344  ARG344      0.0307
    187  CG       -10.5580   42.8500   -6.5040 C.3   344  ARG344      0.0489
    188  CD       -10.1050   42.2750   -7.8600 C.3   344  ARG344      0.2205
    189  NE       -10.7390   40.9840   -8.1720 N.pl3 344  ARG344     -0.0865
    190  CZ       -10.4100   40.2200   -9.2140 C.cat 344  ARG344      0.5346
    191  NH1       -9.4480   40.6180  -10.0360 N.pl3 344  ARG344      0.1354
    192  NH2      -11.0310   39.0570   -9.4410 N.pl3 344  ARG344      0.1354
    193  N        -14.1740   44.3050  -10.0680 N.3   347  TYR347     -0.1227
    194  CA       -13.4150   43.3890  -10.9070 C.3   347  TYR347      0.1736
    195  C        -12.5660   44.1920  -11.8790 C.2   347  TYR347      0.2595
    196  O        -11.5350   43.7260  -12.3590 O.2   347  TYR347     -0.2718
    197  CB       -14.3840   42.5060  -11.6840 C.3   347  TYR347      0.0548
    198  CG       -13.7450   41.4780  -12.5880 C.ar  347  TYR347     -0.0200
    199  CD1      -13.3140   40.2640  -12.0860 C.ar  347  TYR347     -0.0009
    200  CD2      -13.6130   41.7100  -13.9550 C.ar  347  TYR347     -0.0009
    201  CE1      -12.7570   39.3050  -12.9140 C.ar  347  TYR347      0.0417
    202  CE2      -13.0630   40.7610  -14.7890 C.ar  347  TYR347      0.0417
    203  CZ       -12.6360   39.5630  -14.2640 C.ar  347  TYR347      0.1957
    204  OH       -12.0680   38.6240  -15.0960 O.3   347  TYR347     -0.2866
    205  N        -13.0110   45.4150  -12.1430 N.am  348  LEU348     -0.1966
    206  CA       -12.4820   46.2240  -13.2310 C.3   348  LEU348      0.1728
    207  C        -11.2770   47.0540  -12.8220 C.2   348  LEU348      0.2616
    208  O        -11.2780   48.2810  -12.9230 O.2   348  LEU348     -0.2715
    209  CB       -13.5830   47.1020  -13.8110 C.3   348  LEU348      0.0311
    210  CG       -14.7350   46.2710  -14.3830 C.3   348  LEU348      0.0022
    211  CD1      -15.9260   47.1410  -14.7650 C.3   348  LEU348      0.0001
    212  CD2      -14.2330   45.4790  -15.5780 C.3   348  LEU348      0.0001
    213  N        -10.2510   46.3620  -12.3510 N.am  349  ASN349     -0.1958
    214  CA        -8.9690   46.9700  -12.0580 C.3   349  ASN349      0.1819
    215  C         -7.8940   45.9940  -12.4920 C.2   349  ASN349      0.2621
    216  O         -8.1070   44.7830  -12.4570 O.2   349  ASN349     -0.2715
    217  CB        -8.8450   47.2630  -10.5650 C.3   349  ASN349      0.1195
    218  CG        -9.5870   48.5180  -10.1550 C.2   349  ASN349      0.2630
    219  OD1       -9.8230   49.4110  -10.9720 O.2   349  ASN349     -0.2716
    220  ND2       -9.9530   48.5990   -8.8780 N.am  349  ASN349     -0.0877
    221  N         -6.7490   46.5130  -12.9130 N.am  350  PHE350     -0.1960
    222  CA        -5.6400   45.6610  -13.3150 C.3   350  PHE350      0.1771
    223  C         -4.6340   45.5270  -12.1800 C.2   350  PHE350      0.2619
    224  O         -4.3500   46.5000  -11.4780 O.2   350  PHE350     -0.2715
    225  CB        -4.9490   46.2260  -14.5530 C.3   350  PHE350      0.0574
    226  CG        -5.7930   46.1840  -15.7950 C.ar  350  PHE350     -0.0200
    227  CD1       -6.3860   45.0040  -16.2050 C.ar  350  PHE350     -0.0042
    228  CD2       -5.9770   47.3200  -16.5610 C.ar  350  PHE350     -0.0042
    229  CE1       -7.1620   44.9570  -17.3510 C.ar  350  PHE350     -0.0003
    230  CE2       -6.7490   47.2810  -17.7160 C.ar  350  PHE350     -0.0003
    231  CZ        -7.3430   46.0960  -18.1100 C.ar  350  PHE350     -0.0000
    232  N         -4.1040   44.3180  -12.0030 N.am  351  ASP351     -0.1971
    233  CA        -3.0800   44.0580  -11.0000 C.3   351  ASP351      0.1709
    234  C         -1.8490   44.9070  -11.2520 C.2   351  ASP351      0.2293
    235  O         -1.5250   45.2110  -12.4000 O.2   351  ASP351     -0.2864
    236  CB        -2.6580   42.5910  -11.0320 C.3   351  ASP351      0.1436
    237  CG        -3.8120   41.6450  -10.7790 C.2   351  ASP351      0.3671
    238  OD1       -4.6110   41.9040   -9.8550 O.co2 351  ASP351     -0.2456
    239  OD2       -3.9060   40.6290  -11.4990 O.co2 351  ASP351     -0.2456
@<TRIPOS>BOND
     1   159   157   ar
     2   158   157   ar
     3   157   156    1
     4   156   155    1
     5   135   133    1
     6   143   144    1
     7   155   152    1
     8   134   133    1
     9     9     8    1
    10   133   130    1
    11     7     8    1
    12     7     6    1
    13   129   130    1
    14   144   145    1
    15   144   147    1
    16   145   151   am
    17   145   146    2
    18   151   152    1
    19   132   131    2
    20     1     2    1
    21   150   148    1
    22   130   131    1
    23   152   153    1
    24     6     5    1
    25   148   147    1
    26   148   149    1
    27     2     5    1
    28     2     3    1
    29   153   154    2
    30   153   160   am
    31   136   137    1
    32   139   138    2
    33   160   161    1
    34     3     4    2
    35    54    52   am
    36   163   162    2
    37    53    52    2
    38   138   137    1
    39   171   168    1
    40   171   172    1
    41   137   140    1
    42   162   161    1
    43   162   167   am
    44   168   167    1
    45   168   169    1
    46   161   164    1
    47    52    51    1
    48    29    28    1
    49    73    72   ar
    50   140   142    1
    51   140   141    1
    52    74    72   ar
    53    22    21    1
    54    30    31    1
    55   169   170    2
    56    34    31    1
    57    34    35    1
    58    72    71    1
    59    28    25    1
    60    37    35   ar
    61   164   165    1
    62   164   166    1
    63    51    50    1
    64    31    32    1
    65   231   230   ar
    66   231   229   ar
    67    35    36   ar
    68    21    23    1
    69    21    18    1
    70   230   228   ar
    71    50    47    1
    72   229   227   ar
    73    71    70    1
    74    25    24    1
    75    25    26    1
    76    24    19   am
    77    19    20    2
    78    19    18    1
    79    32    33    2
    80    70    67    1
    81    18    17    1
    82   228   226   ar
    83    26    27    2
    84   178   177    1
    85   178   179    1
    86   227   226   ar
    87    47    48    1
    88    47    46    1
    89   173   174    1
    90    49    48    2
    91   226   225    1
    92    17    12   am
    93   181   179   ar
    94   177   174    1
    95   212   210    1
    96    48    55   am
    97   179   180   ar
    98    67    68    1
    99    67    66    1
   100    46    40   am
   101    68    69    2
   102   204   203    1
   103   174   175    1
   104    58    57    2
   105   202   203   ar
   106   202   200   ar
   107   211   210    1
   108   225   222    1
   109    12    13    2
   110    12    11    1
   111    66    57   am
   112    10    16    1
   113    10    11    1
   114    16    15    1
   115   210   209    1
   116    57    56    1
   117   203   201   ar
   118    55    56    1
   119    40    41    2
   120    40    39    1
   121    38    39    1
   122   127   125   ar
   123   127   128   ar
   124    43    45    1
   125    43    42    1
   126   175   176    2
   127   200   198   ar
   128   125   124   ar
   129   209   206    1
   130    11    14    1
   131    56    59    1
   132   128   126   ar
   133    39    42    1
   134   222   221    1
   135   222   223    1
   136   124   126   ar
   137   124   123    1
   138   206   207    1
   139   206   205    1
   140   122   121    2
   141    15    14    1
   142   208   207    2
   143   123   120    1
   144   201   199   ar
   145   221   215   am
   146    42    44    1
   147   207   213   am
   148   117   116   ar
   149   198   199   ar
   150   198   197    1
   151   215   216    2
   152   215   214    1
   153   235   234    2
   154   121   120    1
   155   196   195    2
   156   213   214    1
   157   120   119    1
   158   223   232   am
   159   223   224    2
   160    59    60    1
   161   205   195   am
   162   214   217    1
   163   232   233    1
   164   118   116   ar
   165   195   194    1
   166   116   115    1
   167    61    60   ar
   168    61    63   ar
   169   197   194    1
   170   109   108   ar
   171   109   107   ar
   172   239   237   ar
   173    60    62   ar
   174   234   233    1
   175   236   233    1
   176   236   237    1
   177   219   218    2
   178    63    65   ar
   179   194   193    1
   180   108   106   ar
   181   237   238   ar
   182   107   105   ar
   183    84    85   ar
   184    84    82   ar
   185   115   114    1
   186   217   218    1
   187   113   112    2
   188    85    83   ar
   189    62    64   ar
   190   218   220   am
   191   191   190    1
   192   114   111    1
   193    82    80   ar
   194   111   112    1
   195   111   110    1
   196    65    64   ar
   197   106   105   ar
   198   103   102    2
   199   192   190    1
   200   105   104    1
   201   190   189    2
   202    83    81   ar
   203   110   102   am
   204   102   101    1
   205    80    81   ar
   206    80    79    1
   207   189   188    1
   208   104   101    1
   209    79    76    1
   210   188   187    1
   211   101   100    1
   212    99    97    1
   213    96    95    2
   214    76    75    1
   215    76    77    1
   216   187   186    1
   217    95    94    1
   218   186   183    1
   219    97    94    1
   220    97    98    1
   221    77    78    2
   222    94    93    1
   223    91    90    1
   224   183   184    1
   225   183   182    1
   226   184   185    2
   227    92    90    1
   228    90    87    1
   229    87    86    1
   230    87    88    1
   231    89    88    2
