@<TRIPOS>MOLECULE
tmp/3dsiA01.pdb
 166 162 0 0 0
SMALL
GASTEIGER

@<TRIPOS>ATOM
      1  N         -7.2850   36.0490   14.2310 N.3    25  TYR25      -0.1241
      2  CA        -6.5600   35.8310   15.4700 C.3    25  TYR25       0.1605
      3  C         -5.0510   35.7780   15.2480 C.2    25  TYR25       0.2264
      4  O         -4.3120   36.4590   15.9480 O.2    25  TYR25      -0.2867
      5  CB        -7.0590   34.5460   16.1410 C.3    25  TYR25       0.0534
      6  CG        -6.4280   34.2330   17.4710 C.ar   25  TYR25      -0.0201
      7  CD1       -7.0250   34.6480   18.6690 C.ar   25  TYR25      -0.0009
      8  CD2       -5.2580   33.4770   17.5420 C.ar   25  TYR25      -0.0009
      9  CE1       -6.4510   34.3310   19.9120 C.ar   25  TYR25       0.0417
     10  CE2       -4.6830   33.1620   18.7670 C.ar   25  TYR25       0.0417
     11  CZ        -5.2820   33.5930   19.9460 C.ar   25  TYR25       0.1957
     12  OH        -4.6960   33.2590   21.1640 O.3    25  TYR25      -0.2866
     13  N         -6.7440   22.2680   29.7230 N.3    87  PHE87      -0.1227
     14  CA        -5.5180   23.0360   29.9670 C.3    87  PHE87       0.1736
     15  C         -5.0830   23.8520   28.7410 C.2    87  PHE87       0.2596
     16  O         -4.7110   25.0200   28.8700 O.2    87  PHE87      -0.2718
     17  CB        -4.4420   22.0310   30.3800 C.3    87  PHE87       0.0547
     18  CG        -3.1110   22.6230   30.7680 C.ar   87  PHE87      -0.0202
     19  CD1       -2.9990   23.5460   31.8180 C.ar   87  PHE87      -0.0042
     20  CD2       -1.9450   22.1460   30.1540 C.ar   87  PHE87      -0.0042
     21  CE1       -1.7530   24.0220   32.2210 C.ar   87  PHE87      -0.0003
     22  CE2       -0.6890   22.6330   30.5350 C.ar   87  PHE87      -0.0003
     23  CZ        -0.5950   23.5670   31.5800 C.ar   87  PHE87      -0.0000
     24  N         -5.1490   23.2430   27.5580 N.am   88  THR88      -0.1953
     25  CA        -4.7360   23.9250   26.3270 C.3    88  THR88       0.1897
     26  C         -5.9120   24.4350   25.5040 C.2    88  THR88       0.2313
     27  O         -5.7260   24.9010   24.3720 O.2    88  THR88      -0.2863
     28  CB        -3.8540   23.0350   25.4270 C.3    88  THR88       0.1794
     29  OG1       -4.5920   21.8700   25.0270 O.3    88  THR88      -0.2208
     30  CG2       -2.5810   22.6010   26.1320 C.3    88  THR88       0.0378
     31  N          7.5480   20.8360   23.4780 N.3   197  VAL197     -0.1245
     32  CA         6.5060   21.8480   23.7370 C.3   197  VAL197      0.1561
     33  C          5.8130   22.2390   22.4190 C.2   197  VAL197      0.2260
     34  O          4.5870   22.3810   22.3720 O.2   197  VAL197     -0.2867
     35  CB         7.0810   23.0800   24.5030 C.3   197  VAL197      0.0252
     36  CG1        6.0850   24.2570   24.5070 C.3   197  VAL197      0.0019
     37  CG2        7.4360   22.6950   25.9120 C.3   197  VAL197      0.0019
     38  N          1.8770   22.4290   21.6380 N.3   201  LEU201     -0.1245
     39  CA         1.2270   23.7450   21.5290 C.3   201  LEU201      0.1561
     40  C          1.1260   24.3520   20.1430 C.2   201  LEU201      0.2260
     41  O          0.5240   25.4290   19.9960 O.2   201  LEU201     -0.2867
     42  CB         1.9300   24.7690   22.4360 C.3   201  LEU201      0.0270
     43  CG         1.9520   24.3970   23.9120 C.3   201  LEU201      0.0019
     44  CD1        2.5510   25.5520   24.6830 C.3   201  LEU201      0.0001
     45  CD2        0.5330   24.0780   24.4170 C.3   201  LEU201      0.0001
     46  N         -1.8070   26.4730   18.6960 N.3   204  LEU204     -0.1231
     47  CA        -2.1220   27.7290   19.3670 C.3   204  LEU204      0.1693
     48  C         -1.1680   28.8590   19.0210 C.2   204  LEU204      0.2591
     49  O         -1.3800   29.9940   19.4800 O.2   204  LEU204     -0.2718
     50  CB        -2.0660   27.5170   20.8770 C.3   204  LEU204      0.0284
     51  CG        -3.0060   26.4880   21.5090 C.3   204  LEU204      0.0019
     52  CD1       -2.6730   26.3790   22.9970 C.3   204  LEU204      0.0001
     53  CD2       -4.4650   26.8560   21.2900 C.3   204  LEU204      0.0001
     54  N         -0.1330   28.5550   18.2320 N.am  205  LEU205     -0.1980
     55  CA         0.9820   29.4830   18.0210 C.3   205  LEU205      0.1596
     56  C          1.1980   29.8000   16.5500 C.2   205  LEU205      0.2287
     57  O          0.8440   29.0240   15.6700 O.2   205  LEU205     -0.2864
     58  CB         2.2940   28.8800   18.5720 C.3   205  LEU205      0.0297
     59  CG         2.3540   28.3510   20.0050 C.3   205  LEU205      0.0022
     60  CD1        3.7140   27.7400   20.2610 C.3   205  LEU205      0.0001
     61  CD2        2.0330   29.4710   21.0250 C.3   205  LEU205      0.0001
     62  N          7.4740   21.7050   31.2800 N.3   270  PHE270     -0.1227
     63  CA         6.3660   22.4170   30.6550 C.3   270  PHE270      0.1736
     64  C          5.9160   23.5590   31.5630 C.2   270  PHE270      0.2595
     65  O          6.0740   24.7310   31.2130 O.2   270  PHE270     -0.2718
     66  CB         5.2060   21.4620   30.3120 C.3   270  PHE270      0.0547
     67  CG         4.1530   22.0770   29.4230 C.ar  270  PHE270     -0.0202
     68  CD1        4.0940   21.7530   28.0670 C.ar  270  PHE270     -0.0042
     69  CD2        3.2260   22.9680   29.9490 C.ar  270  PHE270     -0.0042
     70  CE1        3.1050   22.3260   27.2420 C.ar  270  PHE270     -0.0003
     71  CE2        2.2360   23.5350   29.1440 C.ar  270  PHE270     -0.0003
     72  CZ         2.1870   23.2130   27.7830 C.ar  270  PHE270     -0.0000
     73  N          5.3680   23.2330   32.7320 N.am  271  ASN271     -0.1974
     74  CA         4.8160   24.2970   33.5950 C.3   271  ASN271      0.1688
     75  C          5.8820   25.3090   34.0000 C.2   271  ASN271      0.2292
     76  O          5.7190   26.5200   33.8080 O.2   271  ASN271     -0.2864
     77  CB         4.1900   23.7130   34.8750 C.3   271  ASN271      0.1181
     78  CG         2.9880   22.8080   34.6090 C.2   271  ASN271      0.2629
     79  OD1        3.0560   21.5990   34.8400 O.2   271  ASN271     -0.2716
     80  ND2        1.8830   23.3900   34.1690 N.am  271  ASN271     -0.0877
     81  N          9.6210   25.5320   33.3760 N.3   273  TRP273     -0.1227
     82  CA        10.5760   26.0470   32.3920 C.3   273  TRP273      0.1737
     83  C          9.8460   26.8000   31.2730 C.2   273  TRP273      0.2596
     84  O         10.2690   27.8970   30.8560 O.2   273  TRP273     -0.2718
     85  CB        11.4010   24.8870   31.8260 C.3   273  TRP273      0.0564
     86  CG        12.4090   25.2910   30.8070 C.ar  273  TRP273      0.0003
     87  CD1       13.7220   25.6080   31.0300 C.ar  273  TRP273      0.0946
     88  CD2       12.2020   25.3830   29.3920 C.ar  273  TRP273      0.0152
     89  NE1       14.3430   25.9060   29.8290 N.ar  273  TRP273     -0.2442
     90  CE2       13.4310   25.7730   28.8130 C.ar  273  TRP273      0.0810
     91  CE3       11.0920   25.1730   28.5560 C.ar  273  TRP273      0.0012
     92  CZ2       13.5800   25.9610   27.4260 C.ar  273  TRP273      0.0191
     93  CZ3       11.2400   25.3650   27.1750 C.ar  273  TRP273      0.0001
     94  CH2       12.4860   25.7450   26.6310 C.ar  273  TRP273      0.0015
     95  N          8.7410   26.2310   30.7980 N.am  274  GLY274     -0.1942
     96  CA         7.9290   26.8860   29.7720 C.3   274  GLY274      0.2014
     97  C          7.3590   28.2170   30.2330 C.2   274  GLY274      0.2639
     98  O          7.4060   29.2100   29.5070 O.2   274  GLY274     -0.2714
     99  N          6.8280   28.2530   31.4520 N.am  275  GLY275     -0.1954
    100  CA         6.2980   29.5020   31.9880 C.3   275  GLY275      0.1869
    101  C          7.3990   30.5480   32.1360 C.2   275  GLY275      0.2309
    102  O          7.1840   31.7230   31.8280 O.2   275  GLY275     -0.2863
    103  N          8.4240   32.3000   28.9230 N.3   278  ILE278     -0.1245
    104  CA         7.5590   33.4190   28.5580 C.3   278  ILE278      0.1561
    105  C          7.8180   34.5970   29.5010 C.2   278  ILE278      0.2260
    106  O          8.0640   35.7320   29.0590 O.2   278  ILE278     -0.2867
    107  CB         6.0710   33.0200   28.6230 C.3   278  ILE278      0.0252
    108  CG1        5.7640   31.9200   27.5930 C.3   278  ILE278      0.0019
    109  CG2        5.2110   34.2260   28.3420 C.3   278  ILE278      0.0019
    110  CD1        4.3840   31.2670   27.8040 C.3   278  ILE278      0.0001
    111  N          1.5340   35.9360   31.6140 N.3   337  PRO337     -0.2102
    112  CA         2.3350   35.0680   30.7310 C.3   337  PRO337      0.1504
    113  C          1.5020   34.0720   29.9350 C.2   337  PRO337      0.2576
    114  O          1.8400   33.7810   28.7870 O.2   337  PRO337     -0.2718
    115  CB         3.2880   34.3280   31.6800 C.3   337  PRO337      0.0282
    116  CG         3.1350   34.9490   33.0120 C.3   337  PRO337      0.0208
    117  CD         1.9250   35.8540   33.0320 C.3   337  PRO337      0.0893
    118  N          0.4110   33.5750   30.5290 N.am  338  VAL338     -0.1966
    119  CA        -0.5010   32.6880   29.8180 C.3   338  VAL338      0.1727
    120  C         -1.8530   33.3780   29.7320 C.2   338  VAL338      0.2617
    121  O         -2.5080   33.6430   30.7430 O.2   338  VAL338     -0.2715
    122  CB        -0.6340   31.3080   30.4840 C.3   338  VAL338      0.0290
    123  CG1       -1.6420   30.4470   29.6790 C.3   338  VAL338      0.0023
    124  CG2        0.7460   30.6360   30.5700 C.3   338  VAL338      0.0023
    125  N         -2.2540   33.6850   28.5050 N.am  339  THR339     -0.1937
    126  CA        -3.4480   34.5090   28.3130 C.3   339  THR339      0.2028
    127  C         -4.7710   33.7400   28.3200 C.2   339  THR339      0.2642
    128  O         -5.8230   34.3470   28.5340 O.2   339  THR339     -0.2714
    129  CB        -3.3960   35.3130   26.9870 C.3   339  THR339      0.1808
    130  OG1       -3.5140   34.4170   25.8650 O.3   339  THR339     -0.2208
    131  CG2       -2.1180   36.1410   26.8920 C.3   339  THR339      0.0379
    132  N         -4.7320   32.4290   28.0910 N.am  340  ALA340     -0.1963
    133  CA        -5.9570   31.6770   27.7940 C.3   340  ALA340      0.1728
    134  C         -6.3440   30.7200   28.9060 C.2   340  ALA340      0.2616
    135  O         -5.6550   29.7330   29.1250 O.2   340  ALA340     -0.2715
    136  CB        -5.7580   30.8840   26.5050 C.3   340  ALA340      0.0334
    137  N         -7.4580   31.0010   29.5790 N.am  341  GLN341     -0.1977
    138  CA        -8.0190   30.0730   30.5640 C.3   341  GLN341      0.1601
    139  C         -9.4030   29.6460   30.1060 C.2   341  GLN341      0.2287
    140  O        -10.1890   30.4750   29.6440 O.2   341  GLN341     -0.2864
    141  CB        -8.1040   30.7020   31.9670 C.3   341  GLN341      0.0394
    142  CG        -6.7380   30.8010   32.7100 C.3   341  GLN341      0.0908
    143  CD        -5.8630   31.9550   32.2320 C.2   341  GLN341      0.2608
    144  OE1       -6.2730   33.1200   32.2500 O.2   341  GLN341     -0.2717
    145  NE2       -4.6340   31.6370   31.8350 N.am  341  GLN341     -0.0878
    146  N         -2.4870   27.6850   39.8960 N.3   421  CYS421     -0.1235
    147  CA        -1.1060   27.2330   39.6970 C.3   421  CYS421      0.1677
    148  C         -0.4550   26.6600   40.9650 C.2   421  CYS421      0.2270
    149  O         -0.3540   27.3520   41.9820 O.2   421  CYS421     -0.2867
    150  CB        -0.2730   28.4080   39.1740 C.3   421  CYS421      0.0956
    151  SG         1.4860   28.0110   38.9750 S.3   421  CYS421     -0.0801
    152  N          7.3570   33.1440   19.0700 N.3   453  PRO453     -0.2102
    153  CA         6.1220   32.3460   19.1680 C.3   453  PRO453      0.1504
    154  C          5.5830   32.2760   20.5990 C.2   453  PRO453      0.2575
    155  O          4.3630   32.3310   20.7970 O.2   453  PRO453     -0.2718
    156  CB         6.5580   30.9610   18.6790 C.3   453  PRO453      0.0282
    157  CG         7.7160   31.2270   17.7870 C.3   453  PRO453      0.0208
    158  CD         8.4460   32.3880   18.4260 C.3   453  PRO453      0.0893
    159  N          6.4960   32.1500   21.5670 N.am  454  LEU454     -0.1980
    160  CA         6.1860   32.2330   22.9980 C.3   454  LEU454      0.1596
    161  C          6.9010   33.4340   23.5950 C.2   454  LEU454      0.2287
    162  O          8.1330   33.5320   23.5100 O.2   454  LEU454     -0.2864
    163  CB         6.6510   30.9680   23.7350 C.3   454  LEU454      0.0297
    164  CG         5.9260   29.6500   23.4770 C.3   454  LEU454      0.0022
    165  CD1        6.7260   28.4920   24.0590 C.3   454  LEU454      0.0001
    166  CD2        4.5210   29.6850   24.0670 C.3   454  LEU454      0.0001
@<TRIPOS>BOND
     1     1     2    1
     2     3     2    1
     3     3     4    2
     4     2     5    1
     5    57    56    2
     6     5     6    1
     7    56    55    1
     8     6     8   ar
     9     6     7   ar
    10     8    10   ar
    11   157   158    1
    12   157   156    1
    13    55    54    1
    14    55    58    1
    15    54    48   am
    16   158   152    1
    17    58    59    1
    18     7     9   ar
    19   156   153    1
    20    46    47    1
    21    10    11   ar
    22    48    47    1
    23    48    49    2
    24   152   153    1
    25   153   154    1
    26    47    50    1
    27     9    11   ar
    28    11    12    1
    29    41    40    2
    30    59    60    1
    31    59    61    1
    32    40    39    1
    33   154   155    2
    34   154   159   am
    35    50    51    1
    36    53    51    1
    37    51    52    1
    38    39    38    1
    39    39    42    1
    40   159   160    1
    41    34    33    2
    42    33    32    1
    43    42    43    1
    44   160   161    1
    45   160   163    1
    46   164   163    1
    47   164   165    1
    48   164   166    1
    49    31    32    1
    50   162   161    2
    51    32    35    1
    52    43    45    1
    53    43    44    1
    54    27    26    2
    55    35    36    1
    56    35    37    1
    57    29    28    1
    58    28    30    1
    59    28    25    1
    60    26    25    1
    61   130   129    1
    62    25    24    1
    63   136   133    1
    64    94    93   ar
    65    94    92   ar
    66   131   129    1
    67   129   126    1
    68    93    91   ar
    69    70    72   ar
    70    70    68   ar
    71    92    90   ar
    72    24    15   am
    73   108   110    1
    74   108   107    1
    75    72    71   ar
    76   133   132    1
    77   133   134    1
    78    68    67   ar
    79   132   127   am
    80   126   127    1
    81   126   125    1
    82   127   128    2
    83   109   107    1
    84   125   120   am
    85    91    88   ar
    86   104   107    1
    87   104   103    1
    88   104   105    1
    89    15    16    2
    90    15    14    1
    91   114   113    2
    92    90    88   ar
    93    90    89   ar
    94   134   135    2
    95   134   137   am
    96   106   105    2
    97    71    69   ar
    98    88    86   ar
    99    67    69   ar
   100    67    66    1
   101    98    97    2
   102   137   138    1
   103   140   139    2
   104   123   122    1
   105    13    14    1
   106   120   119    1
   107   120   121    2
   108    96    97    1
   109    96    95    1
   110   119   122    1
   111   119   118    1
   112    89    87   ar
   113   113   118   am
   114   113   112    1
   115    14    17    1
   116   139   138    1
   117    20    22   ar
   118    20    18   ar
   119    97    99   am
   120    66    63    1
   121    17    18    1
   122   122   124    1
   123    22    23   ar
   124   138   141    1
   125    63    62    1
   126    63    64    1
   127   112   111    1
   128   112   115    1
   129    18    19   ar
   130    95    83   am
   131    86    87   ar
   132    86    85    1
   133    84    83    2
   134    65    64    2
   135    83    82    1
   136    99   100    1
   137    64    73   am
   138    23    21   ar
   139   111   117    1
   140   115   116    1
   141    19    21   ar
   142    85    82    1
   143   102   101    2
   144   145   143   am
   145   141   142    1
   146   100   101    1
   147   143   144    2
   148   143   142    1
   149    82    81    1
   150    73    74    1
   151   116   117    1
   152    74    75    1
   153    74    77    1
   154    76    75    2
   155    80    78   am
   156    78    79    2
   157    78    77    1
   158   151   150    1
   159   150   147    1
   160   147   146    1
   161   147   148    1
   162   148   149    2
