@<TRIPOS>MOLECULE
tmp/3dskA01.pdb
 154 149 0 0 0
SMALL
GASTEIGER

@<TRIPOS>ATOM
      1  N         -7.4610   36.2320   14.1840 N.3    25  TYR25      -0.1241
      2  CA        -6.7330   36.0250   15.4180 C.3    25  TYR25       0.1605
      3  C         -5.2190   35.9820   15.2010 C.2    25  TYR25       0.2264
      4  O         -4.4770   36.6390   15.9230 O.2    25  TYR25      -0.2867
      5  CB        -7.2280   34.7440   16.0970 C.3    25  TYR25       0.0534
      6  CG        -6.6090   34.4210   17.4380 C.ar   25  TYR25      -0.0201
      7  CD1       -7.2180   34.8190   18.6470 C.ar   25  TYR25      -0.0009
      8  CD2       -5.4300   33.6790   17.5060 C.ar   25  TYR25      -0.0009
      9  CE1       -6.6320   34.4850   19.8900 C.ar   25  TYR25       0.0417
     10  CE2       -4.8540   33.3320   18.7240 C.ar   25  TYR25       0.0417
     11  CZ        -5.4570   33.7340   19.9100 C.ar   25  TYR25       0.1957
     12  OH        -4.8500   33.3560   21.0980 O.3    25  TYR25      -0.2866
     13  N         -6.8320   22.4060   29.5630 N.3    87  LEU87      -0.1231
     14  CA        -5.6510   23.2330   29.7720 C.3    87  LEU87       0.1693
     15  C         -5.3130   24.0910   28.5620 C.2    87  LEU87       0.2592
     16  O         -4.9450   25.2600   28.7130 O.2    87  LEU87      -0.2718
     17  CB        -4.4420   22.3560   30.1270 C.3    87  LEU87       0.0284
     18  CG        -3.1200   23.0780   30.3950 C.3    87  LEU87       0.0019
     19  CD1       -3.2360   23.8930   31.7030 C.3    87  LEU87       0.0001
     20  CD2       -1.9150   22.1100   30.4060 C.3    87  LEU87       0.0001
     21  N         -5.4120   23.4850   27.3810 N.am   88  THR88      -0.1953
     22  CA        -5.0080   24.1520   26.1460 C.3    88  THR88       0.1897
     23  C         -6.2080   24.6220   25.3480 C.2    88  THR88       0.2313
     24  O         -6.0430   25.1090   24.2250 O.2    88  THR88      -0.2863
     25  CB        -4.1110   23.2400   25.2610 C.3    88  THR88       0.1794
     26  OG1       -4.8280   22.0480   24.9040 O.3    88  THR88      -0.2208
     27  CG2       -2.8060   22.8720   25.9850 C.3    88  THR88       0.0378
     28  N          7.3830   20.9750   23.4250 N.3   197  VAL197     -0.1245
     29  CA         6.3640   22.0290   23.6310 C.3   197  VAL197      0.1561
     30  C          5.6810   22.3750   22.3100 C.2   197  VAL197      0.2260
     31  O          4.4670   22.4690   22.2580 O.2   197  VAL197     -0.2867
     32  CB         6.9480   23.3060   24.3350 C.3   197  VAL197      0.0252
     33  CG1        5.9400   24.4530   24.2910 C.3   197  VAL197      0.0019
     34  CG2        7.3290   22.9830   25.7740 C.3   197  VAL197      0.0019
     35  N          1.6810   22.5110   21.5730 N.3   201  LEU201     -0.1245
     36  CA         1.0140   23.8240   21.4850 C.3   201  LEU201      0.1561
     37  C          0.9330   24.4380   20.1060 C.2   201  LEU201      0.2260
     38  O          0.3670   25.5270   19.9610 O.2   201  LEU201     -0.2867
     39  CB         1.6970   24.8480   22.4130 C.3   201  LEU201      0.0270
     40  CG         1.7490   24.4570   23.8920 C.3   201  LEU201      0.0019
     41  CD1        2.3310   25.6200   24.6760 C.3   201  LEU201      0.0001
     42  CD2        0.3560   24.0770   24.4190 C.3   201  LEU201      0.0001
     43  N         -1.9480   26.6860   18.6290 N.3   204  LEU204     -0.1231
     44  CA        -2.2400   27.9480   19.3250 C.3   204  LEU204      0.1693
     45  C         -1.2420   29.0570   18.9920 C.2   204  LEU204      0.2591
     46  O         -1.3690   30.1800   19.5050 O.2   204  LEU204     -0.2718
     47  CB        -2.1980   27.7190   20.8390 C.3   204  LEU204      0.0284
     48  CG        -3.1520   26.6800   21.4230 C.3   204  LEU204      0.0019
     49  CD1       -2.8510   26.4910   22.9130 C.3   204  LEU204      0.0001
     50  CD2       -4.6020   27.0890   21.1930 C.3   204  LEU204      0.0001
     51  N         -0.2190   28.7190   18.2000 N.am  205  LEU205     -0.1980
     52  CA         0.9350   29.5880   18.0050 C.3   205  LEU205      0.1596
     53  C          1.1300   29.9460   16.5420 C.2   205  LEU205      0.2287
     54  O          0.7060   29.2170   15.6510 O.2   205  LEU205     -0.2864
     55  CB         2.2160   28.9140   18.5250 C.3   205  LEU205      0.0297
     56  CG         2.2500   28.4180   19.9760 C.3   205  LEU205      0.0022
     57  CD1        3.5880   27.7490   20.2700 C.3   205  LEU205      0.0001
     58  CD2        1.9670   29.5760   20.9660 C.3   205  LEU205      0.0001
     59  N          7.2700   21.8850   31.2630 N.3   270  PHE270     -0.1227
     60  CA         6.1560   22.5810   30.6370 C.3   270  PHE270      0.1736
     61  C          5.7080   23.7160   31.5390 C.2   270  PHE270      0.2595
     62  O          5.8610   24.8790   31.1670 O.2   270  PHE270     -0.2718
     63  CB         5.0030   21.6170   30.3380 C.3   270  PHE270      0.0547
     64  CG         3.8690   22.2090   29.5080 C.ar  270  PHE270     -0.0202
     65  CD1        3.8020   21.9580   28.1320 C.ar  270  PHE270     -0.0042
     66  CD2        2.8460   22.9420   30.1090 C.ar  270  PHE270     -0.0042
     67  CE1        2.7410   22.4660   27.3660 C.ar  270  PHE270     -0.0003
     68  CE2        1.7710   23.4520   29.3590 C.ar  270  PHE270     -0.0003
     69  CZ         1.7160   23.2080   27.9810 C.ar  270  PHE270     -0.0000
     70  N          5.1810   23.4010   32.7270 N.am  271  ASN271     -0.1974
     71  CA         4.6640   24.4970   33.5820 C.3   271  ASN271      0.1688
     72  C          5.7740   25.5030   33.9640 C.2   271  ASN271      0.2292
     73  O          5.6320   26.7020   33.7150 O.2   271  ASN271     -0.2864
     74  CB         4.0320   23.9500   34.8820 C.3   271  ASN271      0.1181
     75  CG         2.8490   22.9900   34.6580 C.2   271  ASN271      0.2629
     76  OD1        2.9300   21.7970   34.9710 O.2   271  ASN271     -0.2716
     77  ND2        1.7390   23.5160   34.1700 N.am  271  ASN271     -0.0877
     78  N          9.5390   25.6380   33.3800 N.3   273  TRP273     -0.1227
     79  CA        10.4850   26.1350   32.3770 C.3   273  TRP273      0.1737
     80  C          9.7490   26.8980   31.2730 C.2   273  TRP273      0.2596
     81  O         10.1930   27.9940   30.8450 O.2   273  TRP273     -0.2718
     82  CB        11.2800   24.9690   31.7800 C.3   273  TRP273      0.0564
     83  CG        12.3080   25.3780   30.7600 C.ar  273  TRP273      0.0003
     84  CD1       13.6020   25.7360   30.9960 C.ar  273  TRP273      0.0946
     85  CD2       12.1130   25.4580   29.3480 C.ar  273  TRP273      0.0152
     86  NE1       14.2360   26.0260   29.8010 N.ar  273  TRP273     -0.2442
     87  CE2       13.3380   25.8650   28.7770 C.ar  273  TRP273      0.0810
     88  CE3       11.0140   25.2210   28.5040 C.ar  273  TRP273      0.0012
     89  CZ2       13.4980   26.0520   27.3950 C.ar  273  TRP273      0.0191
     90  CZ3       11.1780   25.4010   27.1250 C.ar  273  TRP273      0.0001
     91  CH2       12.4210   25.7990   26.5920 C.ar  273  TRP273      0.0015
     92  N          8.6170   26.3420   30.8260 N.am  274  GLY274     -0.1942
     93  CA         7.8270   27.0160   29.7770 C.3   274  GLY274      0.2014
     94  C          7.2780   28.3720   30.2390 C.2   274  GLY274      0.2639
     95  O          7.3160   29.3750   29.5070 O.2   274  GLY274     -0.2714
     96  N          6.7430   28.4040   31.4600 N.am  275  GLY275     -0.1954
     97  CA         6.2460   29.6450   32.0360 C.3   275  GLY275      0.1869
     98  C          7.3440   30.6940   32.1720 C.2   275  GLY275      0.2309
     99  O          7.1090   31.8560   31.8540 O.2   275  GLY275     -0.2863
    100  N          8.3370   32.4440   28.9520 N.3   278  ILE278     -0.1245
    101  CA         7.4720   33.5760   28.5860 C.3   278  ILE278      0.1561
    102  C          7.7270   34.7550   29.5340 C.2   278  ILE278      0.2260
    103  O          7.9430   35.8890   29.0890 O.2   278  ILE278     -0.2867
    104  CB         5.9780   33.1850   28.6640 C.3   278  ILE278      0.0252
    105  CG1        5.6810   32.0430   27.6740 C.3   278  ILE278      0.0019
    106  CG2        5.1090   34.4020   28.3880 C.3   278  ILE278      0.0019
    107  CD1        4.3330   31.3980   27.8910 C.3   278  ILE278      0.0001
    108  N          1.4510   35.9550   31.7100 N.3   337  PRO337     -0.2102
    109  CA         2.2020   35.0840   30.7910 C.3   337  PRO337      0.1504
    110  C          1.3350   34.1100   30.0250 C.2   337  PRO337      0.2576
    111  O          1.6410   33.8130   28.8690 O.2   337  PRO337     -0.2718
    112  CB         3.1800   34.3260   31.7080 C.3   337  PRO337      0.0282
    113  CG         3.2710   35.1460   32.9200 C.3   337  PRO337      0.0208
    114  CD         1.9270   35.8220   33.0980 C.3   337  PRO337      0.0893
    115  N          0.2850   33.5840   30.6610 N.am  338  VAL338     -0.1966
    116  CA        -0.6410   32.6800   29.9500 C.3   338  VAL338      0.1727
    117  C         -1.9780   33.3900   29.8640 C.2   338  VAL338      0.2617
    118  O         -2.6240   33.6570   30.8810 O.2   338  VAL338     -0.2715
    119  CB        -0.8370   31.3230   30.6410 C.3   338  VAL338      0.0290
    120  CG1       -1.8500   30.4800   29.8480 C.3   338  VAL338      0.0023
    121  CG2        0.4980   30.6040   30.7770 C.3   338  VAL338      0.0023
    122  N         -2.3580   33.7160   28.6340 N.am  339  THR339     -0.1937
    123  CA        -3.4900   34.5960   28.4290 C.3   339  THR339      0.2028
    124  C         -4.8420   33.8980   28.3880 C.2   339  THR339      0.2642
    125  O         -5.8590   34.5650   28.5790 O.2   339  THR339     -0.2714
    126  CB        -3.3680   35.4090   27.1210 C.3   339  THR339      0.1808
    127  OG1       -3.3980   34.5170   26.0070 O.3   339  THR339     -0.2208
    128  CG2       -2.0780   36.2570   27.1090 C.3   339  THR339      0.0379
    129  N         -4.8620   32.5850   28.1470 N.am  340  ALA340     -0.1977
    130  CA        -6.1020   31.8500   27.8330 C.3   340  ALA340      0.1597
    131  C         -6.4790   30.8740   28.9320 C.2   340  ALA340      0.2287
    132  O         -5.7440   29.9010   29.1440 O.2   340  ALA340     -0.2864
    133  CB        -5.9230   31.0830   26.5060 C.3   340  ALA340      0.0319
    134  N         -2.5890   27.7640   40.0160 N.3   421  CYS421     -0.1235
    135  CA        -1.1900   27.3210   39.8110 C.3   421  CYS421      0.1677
    136  C         -0.5620   26.7650   41.0950 C.2   421  CYS421      0.2270
    137  O         -0.4730   27.4730   42.0940 O.2   421  CYS421     -0.2867
    138  CB        -0.3620   28.5010   39.3030 C.3   421  CYS421      0.0956
    139  SG         1.3870   28.1380   39.0950 S.3   421  CYS421     -0.0801
    140  N          7.4260   33.1750   19.0810 N.3   453  PRO453     -0.2102
    141  CA         6.2150   32.3310   19.1910 C.3   453  PRO453      0.1504
    142  C          5.6540   32.2540   20.6190 C.2   453  PRO453      0.2575
    143  O          4.4320   32.2680   20.7930 O.2   453  PRO453     -0.2718
    144  CB         6.6950   30.9520   18.7120 C.3   453  PRO453      0.0282
    145  CG         7.8610   31.2590   17.8150 C.3   453  PRO453      0.0208
    146  CD         8.5460   32.4370   18.4650 C.3   453  PRO453      0.0893
    147  N          6.5520   32.1650   21.6050 N.am  454  LEU454     -0.1980
    148  CA         6.2340   32.2630   23.0310 C.3   454  LEU454      0.1596
    149  C          6.9550   33.4730   23.6140 C.2   454  LEU454      0.2287
    150  O          8.1800   33.6040   23.4700 O.2   454  LEU454     -0.2864
    151  CB         6.6780   31.0010   23.7940 C.3   454  LEU454      0.0297
    152  CG         5.9300   29.6860   23.5590 C.3   454  LEU454      0.0022
    153  CD1        6.6710   28.5340   24.2330 C.3   454  LEU454      0.0001
    154  CD2        4.4890   29.7660   24.0560 C.3   454  LEU454      0.0001
@<TRIPOS>BOND
     1     1     2    1
     2     3     2    1
     3     3     4    2
     4     2     5    1
     5    54    53    2
     6     5     6    1
     7    53    52    1
     8     6     8   ar
     9     6     7   ar
    10     8    10   ar
    11   145   146    1
    12   145   144    1
    13    52    51    1
    14    52    55    1
    15    51    45   am
    16   146   140    1
    17    55    56    1
    18    43    44    1
    19     7     9   ar
    20   144   141    1
    21    10    11   ar
    22    45    44    1
    23    45    46    2
    24   140   141    1
    25   141   142    1
    26    44    47    1
    27     9    11   ar
    28    11    12    1
    29    38    37    2
    30    56    57    1
    31    56    58    1
    32    37    36    1
    33   142   143    2
    34   142   147   am
    35    47    48    1
    36    50    48    1
    37    48    49    1
    38    36    35    1
    39    36    39    1
    40   147   148    1
    41    31    30    2
    42    30    29    1
    43    39    40    1
    44   148   149    1
    45   148   151    1
    46    28    29    1
    47   150   149    2
    48   152   151    1
    49   152   154    1
    50   152   153    1
    51    29    32    1
    52    40    42    1
    53    40    41    1
    54    24    23    2
    55    33    32    1
    56    32    34    1
    57    26    25    1
    58    25    27    1
    59    25    22    1
    60    23    22    1
    61   127   126    1
    62    22    21    1
    63   133   130    1
    64    91    90   ar
    65    91    89   ar
    66   128   126    1
    67   126   123    1
    68    90    88   ar
    69    67    69   ar
    70    67    65   ar
    71    21    15   am
    72    89    87   ar
    73   105   107    1
    74   105   104    1
    75   130   129    1
    76   130   131    1
    77    69    68   ar
    78    65    64   ar
    79   129   124   am
    80   124   123    1
    81   124   125    2
    82   106   104    1
    83   123   122    1
    84    88    85   ar
    85    15    16    2
    86    15    14    1
    87   101   104    1
    88   101   100    1
    89   101   102    1
    90   122   117   am
    91    87    85   ar
    92    87    86   ar
    93   111   110    2
    94   131   132    2
    95   103   102    2
    96    85    83   ar
    97    68    66   ar
    98    95    94    2
    99    64    66   ar
   100    64    63    1
   101    13    14    1
   102    14    17    1
   103    93    94    1
   104    93    92    1
   105    86    84   ar
   106   120   119    1
   107   117   116    1
   108   117   118    2
   109   116   119    1
   110   116   115    1
   111   110   115   am
   112   110   109    1
   113    17    18    1
   114    94    96   am
   115    63    60    1
   116    18    20    1
   117    18    19    1
   118    60    59    1
   119    60    61    1
   120   119   121    1
   121    83    84   ar
   122    83    82    1
   123   109   112    1
   124   109   108    1
   125    92    80   am
   126    81    80    2
   127    62    61    2
   128    80    79    1
   129    96    97    1
   130    61    70   am
   131   112   113    1
   132   108   114    1
   133    82    79    1
   134    99    98    2
   135    97    98    1
   136    79    78    1
   137    70    71    1
   138   113   114    1
   139    71    72    1
   140    71    74    1
   141    73    72    2
   142    77    75   am
   143    75    74    1
   144    75    76    2
   145   139   138    1
   146   138   135    1
   147   135   134    1
   148   135   136    1
   149   136   137    2
