@<TRIPOS>MOLECULE
tmp/3dslA01.pdb
 148 147 0 0 0
SMALL
GASTEIGER

@<TRIPOS>ATOM
      1  N         -1.4670  -10.2690   -1.5340 N.3   106  GLY106     -0.1210
      2  CA        -2.4810   -9.4210   -0.9380 C.3   106  GLY106      0.1940
      3  C         -3.4900   -8.9250   -1.9560 C.2   106  GLY106      0.2454
      4  O         -4.6830   -9.2120   -1.8450 O.2   106  GLY106     -0.2732
      5  N         -3.0220   -8.1590   -2.9490 N.am  107  PRO107     -0.2717
      6  CA        -1.6150   -7.7770   -3.0260 C.3   107  PRO107      0.1536
      7  C         -1.3300   -6.7760   -1.9340 C.2   107  PRO107      0.2599
      8  O         -2.1390   -5.8690   -1.7460 O.2   107  PRO107     -0.2715
      9  CB        -1.5120   -7.0790   -4.3870 C.3   107  PRO107      0.0310
     10  CG        -2.8190   -7.3350   -5.0820 C.3   107  PRO107      0.0237
     11  CD        -3.8170   -7.5190   -4.0060 C.3   107  PRO107      0.0939
     12  N         -0.2270   -6.9530   -1.2140 N.am  108  THR108     -0.1937
     13  CA         0.2330   -5.9470   -0.2590 C.3   108  THR108      0.2028
     14  C          1.4830   -5.2220   -0.7710 C.2   108  THR108      0.2642
     15  O          2.4450   -5.8510   -1.2290 O.2   108  THR108     -0.2714
     16  CB         0.4800   -6.5310    1.1580 C.3   108  THR108      0.1808
     17  OG1        1.6170   -5.8920    1.7500 O.3   108  THR108     -0.2208
     18  CG2        0.7420   -8.0130    1.1030 C.3   108  THR108      0.0379
     19  N          1.4510   -3.8930   -0.6880 N.am  109  ILE109     -0.1963
     20  CA         2.5480   -3.0500   -1.1580 C.3   109  ILE109      0.1727
     21  C          3.3140   -2.3750   -0.0180 C.2   109  ILE109      0.2617
     22  O          4.1160   -1.4710   -0.2530 O.2   109  ILE109     -0.2715
     23  CB         2.0410   -1.9730   -2.1450 C.3   109  ILE109      0.0290
     24  CG1        1.2500   -0.8840   -1.4100 C.3   109  ILE109      0.0022
     25  CG2        1.1980   -2.6210   -3.2370 C.3   109  ILE109      0.0023
     26  CD1        0.5010    0.0740   -2.3290 C.3   109  ILE109      0.0001
     27  N          3.0550   -2.8230    1.2090 N.am  110  GLY110     -0.1940
     28  CA         3.7010   -2.2970    2.3990 C.3   110  GLY110      0.2014
     29  C          3.2220   -3.0820    3.6060 C.2   110  GLY110      0.2638
     30  O          2.0610   -3.4950    3.6530 O.2   110  GLY110     -0.2714
     31  N          4.1100   -3.2980    4.5760 N.am  111  TYR111     -0.1973
     32  CA         3.8220   -4.1440    5.7350 C.3   111  TYR111      0.1639
     33  C          4.8140   -3.8060    6.8480 C.2   111  TYR111      0.2290
     34  O          6.0170   -3.7190    6.5860 O.2   111  TYR111     -0.2864
     35  CB         3.9420   -5.6070    5.3430 C.3   111  TYR111      0.0560
     36  CG         3.1650   -6.5730    6.2110 C.ar  111  TYR111     -0.0198
     37  CD1        1.7940   -6.4150    6.4230 C.ar  111  TYR111     -0.0009
     38  CD2        3.7930   -7.6760    6.7800 C.ar  111  TYR111     -0.0009
     39  CE1        1.0820   -7.3180    7.2000 C.ar  111  TYR111      0.0417
     40  CE2        3.0930   -8.5880    7.5520 C.ar  111  TYR111      0.0417
     41  CZ         1.7400   -8.4130    7.7680 C.ar  111  TYR111      0.1957
     42  OH         1.0570   -9.3370    8.5560 O.3   111  TYR111     -0.2866
     43  N          6.3020    0.1040   -5.7180 N.3   130  TYR130     -0.1241
     44  CA         4.9870    0.0510   -6.3360 C.3   130  TYR130      0.1605
     45  C          4.8190    1.0270   -7.4970 C.2   130  TYR130      0.2264
     46  O          3.7530    1.0680   -8.1160 O.2   130  TYR130     -0.2867
     47  CB         3.9300    0.2930   -5.2510 C.3   130  TYR130      0.0534
     48  CG         2.5040    0.4650   -5.7160 C.ar  130  TYR130     -0.0201
     49  CD1        1.7390   -0.6280   -6.1180 C.ar  130  TYR130     -0.0009
     50  CD2        1.9050    1.7160   -5.7080 C.ar  130  TYR130     -0.0009
     51  CE1        0.4260   -0.4670   -6.5270 C.ar  130  TYR130      0.0417
     52  CE2        0.5990    1.8860   -6.1150 C.ar  130  TYR130      0.0417
     53  CZ        -0.1360    0.8000   -6.5190 C.ar  130  TYR130      0.1957
     54  OH        -1.4380    0.9880   -6.9260 O.3   130  TYR130     -0.2866
     55  N          5.4360    8.0630   -0.2380 N.3   139  VAL139     -0.1231
     56  CA         4.2430    8.1170    0.5710 C.3   139  VAL139      0.1692
     57  C          4.0870    6.7860    1.2670 C.2   139  VAL139      0.2591
     58  O          3.8100    6.7470    2.4650 O.2   139  VAL139     -0.2718
     59  CB         3.0130    8.5010   -0.2300 C.3   139  VAL139      0.0266
     60  CG1        1.7660    8.1480    0.5310 C.3   139  VAL139      0.0020
     61  CG2        3.0330    9.9960   -0.5210 C.3   139  VAL139      0.0020
     62  N          4.3040    5.6950    0.5370 N.am  140  ILE140     -0.1980
     63  CA         4.2870    4.3630    1.1460 C.3   140  ILE140      0.1595
     64  C          5.3020    4.2650    2.2830 C.2   140  ILE140      0.2287
     65  O          4.9720    3.8030    3.3770 O.2   140  ILE140     -0.2864
     66  CB         4.5700    3.2330    0.1270 C.3   140  ILE140      0.0276
     67  CG1        3.5480    3.2410   -1.0110 C.3   140  ILE140      0.0022
     68  CG2        4.5670    1.8730    0.8080 C.3   140  ILE140      0.0022
     69  CD1        3.9120    2.2900   -2.1230 C.3   140  ILE140      0.0001
     70  N          4.1610    6.0540    5.1940 N.3   143  HIS143     -0.1226
     71  CA         3.0100    5.3400    5.7150 C.3   143  HIS143      0.1752
     72  C          3.4080    4.1960    6.6400 C.2   143  HIS143      0.2595
     73  O          2.9470    4.1140    7.7730 O.2   143  HIS143     -0.2718
     74  CB         2.1630    4.7980    4.5650 C.3   143  HIS143      0.0759
     75  CG         0.9930    3.9710    5.0120 C.ar  143  HIS143      0.0818
     76  ND1       -0.3130    4.3990    4.8840 N.ar  143  HIS143     -0.2268
     77  CD2        0.9300    2.7470    5.5830 C.ar  143  HIS143      0.1154
     78  CE1       -1.1240    3.4720    5.3510 C.ar  143  HIS143      0.1986
     79  NE2       -0.3990    2.4580    5.7860 N.ar  143  HIS143     -0.2212
     80  N          4.2480    3.2970    6.1540 N.am  144  GLU144     -0.1979
     81  CA         4.7070    2.1870    6.9780 C.3   144  GLU144      0.1602
     82  C          5.4300    2.6880    8.2460 C.2   144  GLU144      0.2287
     83  O          5.2670    2.1420    9.3320 O.2   144  GLU144     -0.2864
     84  CB         5.5900    1.2400    6.1480 C.3   144  GLU144      0.0415
     85  CG         4.9830    0.8170    4.7810 C.3   144  GLU144      0.1163
     86  CD         3.6330    0.0940    4.9150 C.2   144  GLU144      0.3649
     87  OE1        3.4270   -0.6110    5.9330 O.co2 144  GLU144     -0.2457
     88  OE2        2.7680    0.2390    4.0150 O.co2 144  GLU144     -0.2457
     89  N          2.9290    3.4780   10.7500 N.3   147  HIS147     -0.1241
     90  CA         2.5190    2.2880   11.4560 C.3   147  HIS147      0.1621
     91  C          3.5010    1.9710   12.5750 C.2   147  HIS147      0.2264
     92  O          3.0810    1.6560   13.6860 O.2   147  HIS147     -0.2867
     93  CB         2.4240    1.1120   10.5050 C.3   147  HIS147      0.0745
     94  CG         1.1000    0.9940    9.8260 C.ar  147  HIS147      0.0817
     95  ND1       -0.0650    1.4620   10.3890 N.ar  147  HIS147     -0.2268
     96  CD2        0.7500    0.4200    8.6530 C.ar  147  HIS147      0.1154
     97  CE1       -1.0720    1.2040    9.5770 C.ar  147  HIS147      0.1986
     98  NE2       -0.6070    0.5690    8.5180 N.ar  147  HIS147     -0.2212
     99  N         -4.8840    3.3740   10.5250 N.3   153  HIS153     -0.1241
    100  CA        -5.5680    4.0330    9.4130 C.3   153  HIS153      0.1621
    101  C         -6.5860    5.0490    9.8600 C.2   153  HIS153      0.2264
    102  O         -7.1750    4.9550   10.9250 O.2   153  HIS153     -0.2867
    103  CB        -6.2790    3.0270    8.5200 C.3   153  HIS153      0.0745
    104  CG        -5.3580    2.0970    7.8160 C.ar  153  HIS153      0.0817
    105  ND1       -4.0360    2.4020    7.5830 N.ar  153  HIS153     -0.2268
    106  CD2       -5.5620    0.8770    7.2680 C.ar  153  HIS153      0.1154
    107  CE1       -3.4630    1.4070    6.9350 C.ar  153  HIS153      0.1986
    108  NE2       -4.3690    0.4650    6.7340 N.ar  153  HIS153     -0.2212
    109  N         -4.9920   11.3300    2.5680 N.3   165  CYS165     -0.1221
    110  CA        -4.0710   11.3740    3.6870 C.3   165  CYS165      0.1808
    111  C         -3.1920   10.1420    3.7170 C.2   165  CYS165      0.2601
    112  O         -3.5350    9.1060    3.1370 O.2   165  CYS165     -0.2717
    113  CB        -4.8450   11.4940    4.9910 C.3   165  CYS165      0.0970
    114  SG        -6.2500   12.5850    4.8380 S.3   165  CYS165     -0.0800
    115  N         -2.0580   10.2680    4.4020 N.am  166  ILE166     -0.1979
    116  CA        -1.0280    9.2350    4.4100 C.3   166  ILE166      0.1595
    117  C         -1.5450    7.9120    4.9380 C.2   166  ILE166      0.2287
    118  O         -1.2850    6.8710    4.3620 O.2   166  ILE166     -0.2864
    119  CB         0.1770    9.6390    5.2760 C.3   166  ILE166      0.0276
    120  CG1        0.8450   10.8870    4.7150 C.3   166  ILE166      0.0022
    121  CG2        1.1760    8.4990    5.3600 C.3   166  ILE166      0.0022
    122  CD1        1.3720   10.7010    3.3230 C.3   166  ILE166      0.0001
    123  N         -4.5020    6.8670    5.0450 N.3   168  GLY168     -0.1210
    124  CA        -5.8120    6.5730    4.5120 C.3   168  GLY168      0.1940
    125  C         -5.9260    5.0790    4.3490 C.2   168  GLY168      0.2454
    126  O         -4.8980    4.4080    4.2340 O.2   168  GLY168     -0.2732
    127  N         -7.1660    4.5460    4.3570 N.am  169  PRO169     -0.2717
    128  CA        -7.4030    3.1070    4.2130 C.3   169  PRO169      0.1536
    129  C         -6.5710    2.5500    3.0810 C.2   169  PRO169      0.2599
    130  O         -5.9760    1.4930    3.2340 O.2   169  PRO169     -0.2715
    131  CB        -8.8790    3.0380    3.8430 C.3   169  PRO169      0.0310
    132  CG        -9.4740    4.2250    4.5250 C.3   169  PRO169      0.0237
    133  CD        -8.4250    5.3000    4.5030 C.3   169  PRO169      0.0939
    134  N         -6.5190    3.2610    1.9600 N.am  170  THR170     -0.1937
    135  CA        -5.7500    2.7900    0.8150 C.3   170  THR170      0.2028
    136  C         -5.2600    3.9290   -0.0900 C.2   170  THR170      0.2642
    137  O         -5.9060    4.9700   -0.1980 O.2   170  THR170     -0.2714
    138  CB        -6.5460    1.7470    0.0070 C.3   170  THR170      0.1808
    139  OG1       -5.9860    1.6330   -1.3060 O.3   170  THR170     -0.2208
    140  CG2       -8.0190    2.1430   -0.0870 C.3   170  THR170      0.0379
    141  N         -4.1140    3.7090   -0.7350 N.am  171  ILE171     -0.1977
    142  CA        -3.3920    4.7400   -1.4850 C.3   171  ILE171      0.1596
    143  C         -4.1090    5.2720   -2.7400 C.2   171  ILE171      0.2287
    144  O         -4.8210    4.5430   -3.4370 O.2   171  ILE171     -0.2864
    145  CB        -1.9860    4.2470   -1.8810 C.3   171  ILE171      0.0276
    146  CG1       -1.0350    5.4240   -2.0680 C.3   171  ILE171      0.0022
    147  CG2       -2.0200    3.4250   -3.1440 C.3   171  ILE171      0.0022
    148  CD1        0.4200    5.0010   -2.3360 C.3   171  ILE171      0.0001
@<TRIPOS>BOND
     1    46    45    2
     2    45    44    1
     3    54    53    1
     4    51    53   ar
     5    51    49   ar
     6    53    52   ar
     7    44    43    1
     8    44    47    1
     9    49    48   ar
    10    52    50   ar
    11    48    50   ar
    12    48    47    1
    13    10     9    1
    14    10    11    1
    15     9     6    1
    16    11     5    1
    17   144   143    2
    18    25    23    1
    19   147   145    1
    20     6     5    1
    21     6     7    1
    22     5     3   am
    23   143   142    1
    24   148   146    1
    25    26    24    1
    26    23    24    1
    27    23    20    1
    28    69    67    1
    29   146   145    1
    30     3     4    2
    31     3     2    1
    32     7     8    2
    33     7    12   am
    34   145   142    1
    35     1     2    1
    36   142   141    1
    37   139   138    1
    38    15    14    2
    39    12    13    1
    40    20    19    1
    41    20    21    1
    42    67    66    1
    43    14    19   am
    44    14    13    1
    45   141   136   am
    46    61    59    1
    47    13    16    1
    48    22    21    2
    49    55    56    1
    50    59    60    1
    51    59    56    1
    52   137   136    2
    53   136   135    1
    54   140   138    1
    55    21    27   am
    56   138   135    1
    57    66    68    1
    58    66    63    1
    59    62    63    1
    60    62    57   am
    61    56    57    1
    62   135   134    1
    63    18    16    1
    64    63    64    1
    65    16    17    1
    66    27    28    1
    67    57    58    2
    68   134   129   am
    69    64    65    2
    70    28    29    1
    71   109   110    1
    72   129   130    2
    73   129   128    1
    74   112   111    2
    75   122   120    1
    76    29    30    2
    77    29    31   am
    78   110   111    1
    79   110   113    1
    80   111   115   am
    81   131   128    1
    82   131   132    1
    83    88    86   ar
    84   128   127    1
    85   126   125    2
    86   125   127   am
    87   125   124    1
    88   127   133    1
    89   118   117    2
    90   115   116    1
    91   116   117    1
    92   116   119    1
    93   133   132    1
    94   124   123    1
    95    74    75    1
    96    74    71    1
    97    31    32    1
    98   120   119    1
    99    85    86    1
   100    85    84    1
   101   114   113    1
   102    76    75   ar
   103    76    78   ar
   104    86    87   ar
   105    75    77   ar
   106    70    71    1
   107   119   121    1
   108    35    32    1
   109    35    36    1
   110    78    79   ar
   111    77    79   ar
   112    71    72    1
   113    32    33    1
   114    84    81    1
   115    80    72   am
   116    80    81    1
   117    36    37   ar
   118    36    38   ar
   119    37    39   ar
   120    34    33    2
   121    72    73    2
   122   108   107   ar
   123   108   106   ar
   124    38    40   ar
   125   107   105   ar
   126    81    82    1
   127    39    41   ar
   128   106   104   ar
   129    40    41   ar
   130   105   104   ar
   131    41    42    1
   132   104   103    1
   133    82    83    2
   134    98    96   ar
   135    98    97   ar
   136   103   100    1
   137    96    94   ar
   138   100   101    1
   139   100    99    1
   140    97    95   ar
   141    94    95   ar
   142    94    93    1
   143   101   102    2
   144    93    90    1
   145    89    90    1
   146    90    91    1
   147    91    92    2
