@<TRIPOS>MOLECULE
tmp/3dsrA00.pdb
 108 105 0 0 0
SMALL
GASTEIGER

@<TRIPOS>ATOM
      1  N        -19.8770  -15.0380   25.6440 N.3   128  PHE128     -0.1241
      2  CA       -21.2620  -15.2830   25.3970 C.3   128  PHE128      0.1605
      3  C        -21.4580  -16.2220   24.2100 C.2   128  PHE128      0.2264
      4  O        -21.0680  -15.8950   23.0820 O.2   128  PHE128     -0.2867
      5  CB       -21.9760  -13.9430   25.1890 C.3   128  PHE128      0.0534
      6  CG       -23.4260  -14.0860   24.9280 C.ar  128  PHE128     -0.0203
      7  CD1      -24.0240  -13.4080   23.8800 C.ar  128  PHE128     -0.0042
      8  CD2      -24.2050  -14.9550   25.7140 C.ar  128  PHE128     -0.0042
      9  CE1      -25.3930  -13.5670   23.6210 C.ar  128  PHE128     -0.0003
     10  CE2      -25.5700  -15.1350   25.4620 C.ar  128  PHE128     -0.0003
     11  CZ       -26.1720  -14.4380   24.4110 C.ar  128  PHE128     -0.0000
     12  N        -21.5070  -17.6340   29.4620 N.3   271  LEU271     -0.1231
     13  CA       -22.9640  -17.5070   29.3550 C.3   271  LEU271      0.1693
     14  C        -23.4720  -18.1750   28.0870 C.2   271  LEU271      0.2593
     15  O        -23.2040  -17.6860   26.9790 O.2   271  LEU271     -0.2718
     16  CB       -23.3700  -16.0360   29.3000 C.3   271  LEU271      0.0284
     17  CG       -23.3440  -15.1630   30.5460 C.3   271  LEU271      0.0019
     18  CD1      -21.9320  -14.8600   30.9910 C.3   271  LEU271      0.0001
     19  CD2      -24.0850  -13.8690   30.2600 C.3   271  LEU271      0.0001
     20  N        -24.2200  -19.2670   28.2310 N.am  272  SER272     -0.1938
     21  CA       -24.7470  -19.9380   27.0530 C.3   272  SER272      0.2055
     22  C        -26.2610  -19.8000   26.8880 C.2   272  SER272      0.2643
     23  O        -26.9360  -19.2360   27.7400 O.2   272  SER272     -0.2714
     24  CB       -24.2990  -21.3960   26.9870 C.3   272  SER272      0.2130
     25  OG       -24.7690  -22.1230   28.1020 O.3   272  SER272     -0.2179
     26  N        -26.7520  -20.2970   25.7490 N.am  273  MET273     -0.1963
     27  CA       -28.1660  -20.4060   25.3870 C.3   273  MET273      0.1722
     28  C        -28.5120  -21.8910   25.3630 C.2   273  MET273      0.2458
     29  O        -27.5960  -22.7160   25.4210 O.2   273  MET273     -0.2730
     30  CB       -28.3500  -19.8580   23.9780 C.3   273  MET273      0.0427
     31  CG       -27.5810  -18.6010   23.7050 C.3   273  MET273      0.0599
     32  SD       -28.2370  -17.2600   24.7020 S.3   273  MET273     -0.1393
     33  CE       -29.4940  -16.6130   23.5910 C.3   273  MET273      0.0692
     34  N        -29.8130  -22.2590   25.2220 N.am  274  PRO274     -0.2727
     35  CA       -30.9990  -21.4340   25.0700 C.3   274  PRO274      0.1402
     36  C        -31.7540  -21.3230   26.3880 C.2   274  PRO274      0.2269
     37  O        -31.1830  -20.8440   27.3720 O.2   274  PRO274     -0.2865
     38  CB       -31.8220  -22.2160   24.0270 C.3   274  PRO274      0.0296
     39  CG       -31.2710  -23.6810   24.0770 C.3   274  PRO274      0.0237
     40  CD       -30.1970  -23.6830   25.1490 C.3   274  PRO274      0.0939
     41  N        -35.5320  -20.2970   30.5630 N.3   276  ILE276     -0.1231
     42  CA       -35.0610  -18.9480   30.9960 C.3   276  ILE276      0.1678
     43  C        -33.5890  -18.6320   30.4780 C.2   276  ILE276      0.2434
     44  O        -33.1650  -19.1990   29.4490 O.2   276  ILE276     -0.2733
     45  CB       -35.3600  -18.7030   32.5530 C.3   276  ILE276      0.0265
     46  CG1      -34.4510  -19.5390   33.4770 C.3   276  ILE276      0.0019
     47  CG2      -36.8480  -18.9980   32.8770 C.3   276  ILE276      0.0020
     48  CD1      -34.3000  -18.9670   34.9020 C.3   276  ILE276      0.0001
     49  N        -32.8210  -17.7140   31.1290 N.am  277  PRO277     -0.2718
     50  CA       -32.9580  -16.5740   32.0430 C.3   277  PRO277      0.1535
     51  C        -32.4550  -15.2470   31.4590 C.2   277  PRO277      0.2599
     52  O        -32.0370  -15.1970   30.3000 O.2   277  PRO277     -0.2715
     53  CB       -32.0110  -16.9770   33.1800 C.3   277  PRO277      0.0310
     54  CG       -30.9530  -17.9260   32.4970 C.3   277  PRO277      0.0237
     55  CD       -31.4010  -18.1000   31.0540 C.3   277  PRO277      0.0939
     56  N        -32.4810  -14.1920   32.2760 N.am  278  ASP278     -0.1958
     57  CA       -31.8570  -12.9100   31.9280 C.3   278  ASP278      0.1840
     58  C        -30.6470  -12.6300   32.8270 C.2   278  ASP278      0.2622
     59  O        -30.7750  -12.2990   34.0130 O.2   278  ASP278     -0.2715
     60  CB       -32.8780  -11.7690   31.9820 C.3   278  ASP278      0.1450
     61  CG       -32.2320  -10.3990   32.0950 C.2   278  ASP278      0.3671
     62  OD1      -32.9530   -9.4540   32.4740 O.co2 278  ASP278     -0.2456
     63  OD2      -31.0200  -10.2610   31.8140 O.co2 278  ASP278     -0.2456
     64  N        -29.4710  -12.7670   32.2330 N.am  279  LEU279     -0.1963
     65  CA       -28.2300  -12.5840   32.9420 C.3   279  LEU279      0.1728
     66  C        -27.4600  -11.4380   32.3280 C.2   279  LEU279      0.2616
     67  O        -26.2460  -11.4890   32.2620 O.2   279  LEU279     -0.2715
     68  CB       -27.3900  -13.8570   32.8720 C.3   279  LEU279      0.0311
     69  CG       -28.0880  -15.2240   32.7980 C.3   279  LEU279      0.0022
     70  CD1      -27.1010  -16.3020   32.3650 C.3   279  LEU279      0.0001
     71  CD2      -28.7450  -15.5980   34.1180 C.3   279  LEU279      0.0001
     72  N        -28.1720  -10.4080   31.8800 N.am  280  SER280     -0.1950
     73  CA       -27.5570   -9.1950   31.3270 C.3   280  SER280      0.1924
     74  C        -26.7810   -8.4450   32.3850 C.2   280  SER280      0.2314
     75  O        -25.8410   -7.7190   32.0730 O.2   280  SER280     -0.2863
     76  CB       -28.6130   -8.2630   30.7240 C.3   280  SER280      0.2116
     77  OG       -29.5740   -7.8830   31.6880 O.3   280  SER280     -0.2180
     78  N        -23.1870   -8.3250   32.1450 N.3   283  ILE283     -0.1245
     79  CA       -22.5860   -7.5860   31.0320 C.3   283  ILE283      0.1561
     80  C        -22.5470   -6.0630   31.2690 C.2   283  ILE283      0.2260
     81  O        -23.5500   -5.3710   31.1460 O.2   283  ILE283     -0.2867
     82  CB       -23.3000   -7.9260   29.7140 C.3   283  ILE283      0.0252
     83  CG1      -23.6990   -9.3990   29.7210 C.3   283  ILE283      0.0019
     84  CG2      -22.4050   -7.6310   28.5350 C.3   283  ILE283      0.0019
     85  CD1      -24.6020   -9.8350   28.5750 C.3   283  ILE283      0.0001
     86  N        -18.0790   -8.0340   26.4210 N.3   287  GLN287     -0.1245
     87  CA       -18.5370   -9.3840   26.0460 C.3   287  GLN287      0.1566
     88  C        -17.7310   -9.9020   24.8520 C.2   287  GLN287      0.2260
     89  O        -17.2490   -9.1220   24.0210 O.2   287  GLN287     -0.2867
     90  CB       -20.0100   -9.4070   25.6860 C.3   287  GLN287      0.0367
     91  CG       -20.3620   -8.3230   24.7210 C.3   287  GLN287      0.0905
     92  CD       -21.8040   -8.3490   24.2970 C.2   287  GLN287      0.2608
     93  OE1      -22.2440   -7.4650   23.5770 O.2   287  GLN287     -0.2717
     94  NE2      -22.5510   -9.3700   24.7240 N.am  287  GLN287     -0.0878
     95  N        -18.3530  -12.6000   21.8060 N.3   289  VAL289     -0.1245
     96  CA       -19.3790  -13.4000   21.1390 C.3   289  VAL289      0.1561
     97  C        -18.8330  -14.6370   20.3810 C.2   289  VAL289      0.2260
     98  O        -17.9530  -14.5320   19.4990 O.2   289  VAL289     -0.2867
     99  CB       -20.2910  -12.5200   20.2110 C.3   289  VAL289      0.0252
    100  CG1      -21.4570  -13.3260   19.6510 C.3   289  VAL289      0.0019
    101  CG2      -20.8480  -11.3590   20.9850 C.3   289  VAL289      0.0019
    102  N        -19.5970   -7.8760   16.8710 N.3   307  PRO307     -0.2116
    103  CA       -20.4870   -7.6810   18.0040 C.3   307  PRO307      0.1372
    104  C        -19.7690   -7.7640   19.3680 C.2   307  PRO307      0.2244
    105  O        -20.2820   -7.2770   20.3750 O.2   307  PRO307     -0.2868
    106  CB       -21.4970   -8.8140   17.8430 C.3   307  PRO307      0.0268
    107  CG       -20.7480   -9.8780   17.1790 C.3   307  PRO307      0.0207
    108  CD       -19.6900   -9.2420   16.3320 C.3   307  PRO307      0.0892
@<TRIPOS>BOND
     1   108   102    1
     2   108   107    1
     3   102   103    1
     4   107   106    1
     5   106   103    1
     6   103   104    1
     7   104   105    2
     8    98    97    2
     9   100    99    1
    10    99   101    1
    11    99    96    1
    12    97    96    1
    13    96    95    1
    14     4     3    2
    15    93    92    2
    16    33    32    1
    17     9     7   ar
    18     9    11   ar
    19    31    30    1
    20    31    32    1
    21     7     6   ar
    22    30    27    1
    23    89    88    2
    24    38    39    1
    25    38    35    1
    26    39    40    1
    27     3     2    1
    28    92    91    1
    29    92    94   am
    30    11    10   ar
    31    91    90    1
    32    88    87    1
    33     6     5    1
    34     6     8   ar
    35    35    34    1
    36    35    36    1
    37    40    34    1
    38     5     2    1
    39    34    28   am
    40    28    27    1
    41    28    29    2
    42    27    26    1
    43     2     1    1
    44    10     8   ar
    45    90    87    1
    46    26    22   am
    47    87    86    1
    48    36    37    2
    49    22    21    1
    50    22    23    2
    51    15    14    2
    52    24    21    1
    53    24    25    1
    54    21    20    1
    55    14    20   am
    56    14    13    1
    57    84    82    1
    58    85    83    1
    59    16    13    1
    60    16    17    1
    61    13    12    1
    62    44    43    2
    63    82    83    1
    64    82    79    1
    65    19    17    1
    66    52    51    2
    67    43    42    1
    68    43    49   am
    69    17    18    1
    70    41    42    1
    71    76    73    1
    72    76    77    1
    73    42    45    1
    74    79    80    1
    75    79    78    1
    76    55    49    1
    77    55    54    1
    78    49    50    1
    79    81    80    2
    80    73    72    1
    81    73    74    1
    82    51    50    1
    83    51    56   am
    84    63    61   ar
    85    72    66   am
    86    57    60    1
    87    57    56    1
    88    57    58    1
    89    60    61    1
    90    50    53    1
    91    75    74    2
    92    61    62   ar
    93    64    58   am
    94    64    65    1
    95    67    66    2
    96    66    65    1
    97    70    69    1
    98    54    53    1
    99    45    47    1
   100    45    46    1
   101    69    68    1
   102    69    71    1
   103    58    59    2
   104    68    65    1
   105    46    48    1
