@<TRIPOS>MOLECULE
tmp/3dsuB00.pdb
 224 222 0 0 0
SMALL
GASTEIGER

@<TRIPOS>ATOM
      1  N          1.4100   33.3270   26.0480 N.3    45  TYR45      -0.1227
      2  CA         1.2500   33.2690   24.5870 C.3    45  TYR45       0.1736
      3  C          0.0880   32.3460   24.1480 C.2    45  TYR45       0.2595
      4  O         -0.7410   32.7420   23.2950 O.2    45  TYR45      -0.2718
      5  CB         2.5900   32.9260   23.8850 C.3    45  TYR45       0.0548
      6  CG         2.3990   32.3310   22.5230 C.ar   45  TYR45      -0.0200
      7  CD1        1.9160   33.0990   21.4600 C.ar   45  TYR45      -0.0009
      8  CD2        2.6320   30.9820   22.3080 C.ar   45  TYR45      -0.0009
      9  CE1        1.6900   32.5250   20.1990 C.ar   45  TYR45       0.0417
     10  CE2        2.4070   30.3950   21.0570 C.ar   45  TYR45       0.0417
     11  CZ         1.9400   31.1750   20.0140 C.ar   45  TYR45       0.1957
     12  OH         1.7190   30.5790   18.8000 O.3    45  TYR45      -0.2866
     13  N         -0.0070   31.1490   24.7320 N.am   46  TRP46      -0.1976
     14  CA        -1.0700   30.2070   24.3590 C.3    46  TRP46       0.1640
     15  C         -2.4300   30.7970   24.6670 C.2    46  TRP46       0.2290
     16  O         -3.3330   30.7320   23.8320 O.2    46  TRP46      -0.2864
     17  CB        -0.9280   28.8330   25.0480 C.3    46  TRP46       0.0576
     18  CG         0.3610   28.1810   24.7700 C.ar   46  TRP46       0.0006
     19  CD1        1.0640   28.2490   23.6170 C.ar   46  TRP46       0.0946
     20  CD2        1.1440   27.3900   25.6730 C.ar   46  TRP46       0.0152
     21  NE1        2.2240   27.5380   23.7300 N.ar   46  TRP46      -0.2442
     22  CE2        2.3050   27.0020   24.9800 C.ar   46  TRP46       0.0810
     23  CE3        0.9760   26.9710   26.9970 C.ar   46  TRP46       0.0012
     24  CZ2        3.3080   26.2160   25.5630 C.ar   46  TRP46       0.0191
     25  CZ3        1.9730   26.1870   27.5770 C.ar   46  TRP46       0.0001
     26  CH2        3.1220   25.8210   26.8570 C.ar   46  TRP46       0.0015
     27  N         13.0880   29.7130   23.4040 N.3    90  LEU90      -0.1245
     28  CA        11.6630   29.3510   23.4470 C.3    90  LEU90       0.1561
     29  C         10.7930   30.5230   23.9290 C.2    90  LEU90       0.2260
     30  O          9.7510   30.8140   23.3430 O.2    90  LEU90      -0.2867
     31  CB        11.4270   28.1320   24.3390 C.3    90  LEU90       0.0270
     32  CG        11.8690   26.7590   23.8130 C.3    90  LEU90       0.0019
     33  CD1       11.8930   25.7360   24.9520 C.3    90  LEU90       0.0001
     34  CD2       10.9690   26.2850   22.6780 C.3    90  LEU90       0.0001
     35  N         10.9380   33.7480   21.6370 N.3    93  LEU93      -0.1245
     36  CA         9.9150   33.6490   20.6080 C.3    93  LEU93       0.1561
     37  C          8.5260   33.9890   21.1630 C.2    93  LEU93       0.2260
     38  O          7.8180   34.8280   20.5880 O.2    93  LEU93      -0.2867
     39  CB         9.9010   32.2700   19.9410 C.3    93  LEU93       0.0270
     40  CG         8.7160   32.0790   18.9820 C.3    93  LEU93       0.0019
     41  CD1        8.7200   33.1520   17.8860 C.3    93  LEU93       0.0001
     42  CD2        8.6830   30.6660   18.4050 C.3    93  LEU93       0.0001
     43  N          6.0510   36.9580   19.9290 N.3    97  GLN97      -0.1245
     44  CA         4.7110   36.6680   19.4050 C.3    97  GLN97       0.1566
     45  C          3.6510   37.4780   20.1550 C.2    97  GLN97       0.2260
     46  O          2.7680   38.0750   19.5440 O.2    97  GLN97      -0.2867
     47  CB         4.4010   35.1740   19.4910 C.3    97  GLN97       0.0367
     48  CG         5.2080   34.3210   18.5030 C.3    97  GLN97       0.0905
     49  CD         4.9470   32.8260   18.6540 C.2    97  GLN97       0.2608
     50  OE1        4.3790   32.1830   17.7570 O.2    97  GLN97      -0.2717
     51  NE2        5.3550   32.2680   19.7790 N.am   97  GLN97      -0.0878
     52  N         13.8780   22.6090   16.8540 N.3   138  ARG138     -0.1245
     53  CA        12.9390   23.5480   17.4930 C.3   138  ARG138      0.1563
     54  C         13.5360   24.9400   17.5740 C.2   138  ARG138      0.2260
     55  O         12.8330   25.9290   17.4170 O.2   138  ARG138     -0.2867
     56  CB        12.5530   23.1280   18.9130 C.3   138  ARG138      0.0307
     57  CG        11.5930   21.9820   19.0050 C.3   138  ARG138      0.0489
     58  CD        11.3190   21.6520   20.4950 C.3   138  ARG138      0.2205
     59  NE        12.4940   21.0500   21.1280 N.pl3 138  ARG138     -0.0865
     60  CZ        12.9080   21.2470   22.3890 C.cat 138  ARG138      0.5346
     61  NH1       12.2530   22.0370   23.2380 N.pl3 138  ARG138      0.1354
     62  NH2       14.0070   20.6320   22.8110 N.pl3 138  ARG138      0.1354
     63  N         13.7220   26.9160   14.2600 N.3   141  PHE141     -0.1227
     64  CA        12.4350   27.5740   14.0560 C.3   141  PHE141      0.1736
     65  C         12.2520   28.7940   14.9730 C.2   141  PHE141      0.2595
     66  O         11.8710   29.8650   14.5180 O.2   141  PHE141     -0.2718
     67  CB        11.2530   26.6050   14.2590 C.3   141  PHE141      0.0547
     68  CG         9.9200   27.2860   14.1820 C.ar  141  PHE141     -0.0202
     69  CD1        9.4040   27.6720   12.9500 C.ar  141  PHE141     -0.0042
     70  CD2        9.2090   27.6050   15.3370 C.ar  141  PHE141     -0.0042
     71  CE1        8.2030   28.3290   12.8580 C.ar  141  PHE141     -0.0003
     72  CE2        7.9850   28.2750   15.2450 C.ar  141  PHE141     -0.0003
     73  CZ         7.4880   28.6300   14.0050 C.ar  141  PHE141     -0.0000
     74  N         12.5500   28.6530   16.2560 N.am  142  CYS142     -0.1970
     75  CA        12.4020   29.7840   17.1860 C.3   142  CYS142      0.1712
     76  C         13.2490   30.9740   16.7260 C.2   142  CYS142      0.2296
     77  O         12.8110   32.1300   16.7930 O.2   142  CYS142     -0.2864
     78  CB        12.7800   29.3980   18.6150 C.3   142  CYS142      0.0983
     79  SG        11.6150   28.2910   19.4480 S.3   142  CYS142     -0.0798
     80  N          9.4760   13.1550   13.7870 N.3   184  HIS184     -0.1241
     81  CA         8.4860   13.4230   14.8300 C.3   184  HIS184      0.1621
     82  C          7.6340   14.6080   14.3610 C.2   184  HIS184      0.2264
     83  O          8.1850   15.5850   13.9180 O.2   184  HIS184     -0.2867
     84  CB         9.2380   13.7570   16.1490 C.3   184  HIS184      0.0745
     85  CG         8.3370   14.0400   17.3080 C.ar  184  HIS184      0.0817
     86  ND1        8.3600   13.3080   18.4740 N.ar  184  HIS184     -0.2268
     87  CD2        7.3540   14.9540   17.4610 C.ar  184  HIS184      0.1154
     88  CE1        7.4390   13.7740   19.2980 C.ar  184  HIS184      0.1986
     89  NE2        6.8060   14.7680   18.7020 N.ar  184  HIS184     -0.2212
     90  N          6.1730   17.0750   15.8220 N.3   186  GLY186     -0.1210
     91  CA         6.6230   18.3120   16.4440 C.3   186  GLY186      0.1956
     92  C          7.7960   18.9610   15.7340 C.2   186  GLY186      0.2611
     93  O          7.7690   20.1580   15.4580 O.2   186  GLY186     -0.2717
     94  N          8.8140   18.1560   15.4260 N.am  187  GLN187     -0.1979
     95  CA         9.9940   18.6120   14.6780 C.3   187  GLN187      0.1601
     96  C          9.6910   18.8800   13.2150 C.2   187  GLN187      0.2287
     97  O         10.2630   19.7760   12.6100 O.2   187  GLN187     -0.2864
     98  CB        11.1160   17.5720   14.7290 C.3   187  GLN187      0.0394
     99  CG        11.4030   17.0240   16.0880 C.3   187  GLN187      0.0908
    100  CD        11.8950   18.0890   16.9440 C.2   187  GLN187      0.2608
    101  OE1       12.4700   19.0600   16.4470 O.2   187  GLN187     -0.2717
    102  NE2       11.6620   17.9700   18.2240 N.am  187  GLN187     -0.0878
    103  N          6.8180   20.0740   12.1810 N.3   189  TYR189     -0.1227
    104  CA         6.2280   21.4170   12.2220 C.3   189  TYR189      0.1736
    105  C          7.3040   22.5210   12.2730 C.2   189  TYR189      0.2595
    106  O          7.2750   23.4760   11.4720 O.2   189  TYR189     -0.2718
    107  CB         5.2160   21.5730   13.3770 C.3   189  TYR189      0.0548
    108  CG         4.9170   23.0330   13.6500 C.ar  189  TYR189     -0.0200
    109  CD1        4.1130   23.7710   12.7800 C.ar  189  TYR189     -0.0009
    110  CD2        5.4760   23.6980   14.7460 C.ar  189  TYR189     -0.0009
    111  CE1        3.8620   25.1270   12.9910 C.ar  189  TYR189      0.0417
    112  CE2        5.2160   25.0650   14.9690 C.ar  189  TYR189      0.0417
    113  CZ         4.4030   25.7720   14.0840 C.ar  189  TYR189      0.1957
    114  OH         4.1280   27.1270   14.2790 O.3   189  TYR189     -0.2866
    115  N          8.2470   22.3870   13.2010 N.am  190  CYS190     -0.1970
    116  CA         9.3660   23.3200   13.3260 C.3   190  CYS190      0.1712
    117  C         10.1430   23.4530   12.0180 C.2   190  CYS190      0.2296
    118  O         10.4530   24.5540   11.5780 O.2   190  CYS190     -0.2864
    119  CB        10.2960   22.8570   14.4470 C.3   190  CYS190      0.0983
    120  SG         9.4970   23.1320   16.0050 S.3   190  CYS190     -0.0798
    121  N          3.8350   10.2500   15.9200 N.3   226  ARG226     -0.1245
    122  CA         4.6350    9.3010   15.1700 C.3   226  ARG226      0.1563
    123  C          4.0200    7.9140   15.2470 C.2   226  ARG226      0.2260
    124  O          3.0750    7.6970   16.0130 O.2   226  ARG226     -0.2867
    125  CB         6.1030    9.3230   15.6020 C.3   226  ARG226      0.0307
    126  CG         6.3360    9.1930   17.0190 C.3   226  ARG226      0.0489
    127  CD         7.7930    9.5100   17.3520 C.3   226  ARG226      0.2205
    128  NE         7.8520    9.3480   18.7760 N.pl3 226  ARG226     -0.0865
    129  CZ         8.6440    8.5350   19.4610 C.cat 226  ARG226      0.5346
    130  NH1        9.6140    7.8140   18.8980 N.pl3 226  ARG226      0.1354
    131  NH2        8.4690    8.5020   20.7630 N.pl3 226  ARG226      0.1354
    132  N         -3.4690   12.6360   20.0490 N.3   232  ASP232     -0.1239
    133  CA        -3.3960   13.7130   21.0280 C.3   232  ASP232      0.1674
    134  C         -3.8130   14.9700   20.2610 C.2   232  ASP232      0.2266
    135  O         -3.3790   15.2030   19.1240 O.2   232  ASP232     -0.2867
    136  CB        -1.9680   13.7490   21.6090 C.3   232  ASP232      0.1410
    137  CG        -1.6470   14.9910   22.3630 C.2   232  ASP232      0.3668
    138  OD1       -2.3880   15.9940   22.2720 O.co2 232  ASP232     -0.2456
    139  OD2       -0.6120   14.9570   23.0710 O.co2 232  ASP232     -0.2456
    140  N         -3.0170   17.9890   20.4050 N.3   234  CYS234     -0.1221
    141  CA        -2.0460   18.9770   19.9370 C.3   234  CYS234      0.1808
    142  C         -1.4150   18.5780   18.5880 C.2   234  CYS234      0.2601
    143  O         -0.9260   19.4290   17.8460 O.2   234  CYS234     -0.2717
    144  CB        -1.0040   19.2730   20.9840 C.3   234  CYS234      0.0970
    145  SG         0.1330   17.9920   21.2680 S.3   234  CYS234     -0.0800
    146  N         -1.4950   17.3040   18.2300 N.am  235  TYR235     -0.1976
    147  CA        -1.1110   16.9030   16.8540 C.3   235  TYR235      0.1639
    148  C         -2.0460   17.4000   15.7410 C.2   235  TYR235      0.2290
    149  O         -1.6180   17.5560   14.5950 O.2   235  TYR235     -0.2864
    150  CB        -0.8020   15.4270   16.8130 C.3   235  TYR235      0.0560
    151  CG         0.4550   15.2050   17.5960 C.ar  235  TYR235     -0.0198
    152  CD1        0.4530   14.5020   18.7860 C.ar  235  TYR235     -0.0009
    153  CD2        1.6500   15.7730   17.1690 C.ar  235  TYR235     -0.0009
    154  CE1        1.6190   14.3380   19.5100 C.ar  235  TYR235      0.0417
    155  CE2        2.8170   15.6200   17.8890 C.ar  235  TYR235      0.0417
    156  CZ         2.7950   14.9070   19.0540 C.ar  235  TYR235      0.1957
    157  OH         3.9740   14.7770   19.7520 O.3   235  TYR235     -0.2866
    158  N         -2.7130   20.2930   15.6470 N.3   237  TRP237     -0.1227
    159  CA        -1.9700   21.4200   15.2200 C.3   237  TRP237      0.1737
    160  C         -0.7050   20.9590   14.4900 C.2   237  TRP237      0.2595
    161  O         -0.5450   21.2780   13.3290 O.2   237  TRP237     -0.2718
    162  CB        -1.6730   22.3850   16.3600 C.3   237  TRP237      0.0564
    163  CG        -0.8040   23.4660   15.8950 C.ar  237  TRP237      0.0003
    164  CD1        0.4950   23.6170   16.1880 C.ar  237  TRP237      0.0946
    165  CD2       -1.1350   24.5120   14.9680 C.ar  237  TRP237      0.0152
    166  NE1        1.0130   24.6940   15.5300 N.ar  237  TRP237     -0.2442
    167  CE2        0.0310   25.2680   14.7730 C.ar  237  TRP237      0.0810
    168  CE3       -2.2980   24.8770   14.2880 C.ar  237  TRP237      0.0012
    169  CZ2        0.0680   26.3850   13.9540 C.ar  237  TRP237      0.0191
    170  CZ3       -2.2670   25.9760   13.4810 C.ar  237  TRP237      0.0001
    171  CH2       -1.0910   26.7230   13.3170 C.ar  237  TRP237      0.0015
    172  N          0.1660   20.1900   15.1420 N.am  238  TRP238     -0.1976
    173  CA         1.5070   19.9550   14.5630 C.3   238  TRP238      0.1640
    174  C          1.4120   19.3300   13.1780 C.2   238  TRP238      0.2290
    175  O          2.0880   19.7760   12.2360 O.2   238  TRP238     -0.2864
    176  CB         2.4140   19.1280   15.4880 C.3   238  TRP238      0.0576
    177  CG         2.5070   19.6660   16.9170 C.ar  238  TRP238      0.0006
    178  CD1        2.0890   19.0110   18.0400 C.ar  238  TRP238      0.0946
    179  CD2        3.0050   20.9540   17.3790 C.ar  238  TRP238      0.0152
    180  NE1        2.2880   19.7880   19.1560 N.ar  238  TRP238     -0.2442
    181  CE2        2.8570   20.9760   18.7900 C.ar  238  TRP238      0.0810
    182  CE3        3.5480   22.0680   16.7510 C.ar  238  TRP238      0.0012
    183  CZ2        3.2450   22.0680   19.5850 C.ar  238  TRP238      0.0191
    184  CZ3        3.9390   23.1800   17.5530 C.ar  238  TRP238      0.0001
    185  CH2        3.7830   23.1610   18.9460 C.ar  238  TRP238      0.0015
    186  N         -2.6030   24.8460   26.8270 N.3   283  PHE283     -0.1241
    187  CA        -1.7810   24.3820   25.6790 C.3   283  PHE283      0.1605
    188  C         -2.6770   23.6540   24.6830 C.2   283  PHE283      0.2264
    189  O         -2.7410   24.0140   23.5070 O.2   283  PHE283     -0.2867
    190  CB        -0.6830   23.4510   26.2120 C.3   283  PHE283      0.0534
    191  CG         0.2020   22.8150   25.1660 C.ar  283  PHE283     -0.0203
    192  CD1       -0.0980   21.5570   24.6430 C.ar  283  PHE283     -0.0042
    193  CD2        1.3860   23.4130   24.7920 C.ar  283  PHE283     -0.0042
    194  CE1        0.7510   20.9370   23.7120 C.ar  283  PHE283     -0.0003
    195  CE2        2.2500   22.8030   23.8540 C.ar  283  PHE283     -0.0003
    196  CZ         1.9260   21.5610   23.3160 C.ar  283  PHE283     -0.0000
    197  N         -4.2190   24.5460   20.8310 N.3   287  PHE287     -0.1241
    198  CA        -3.9690   23.6910   19.6540 C.3   287  PHE287      0.1605
    199  C         -5.2390   23.0580   19.0970 C.2   287  PHE287      0.2264
    200  O         -5.3720   22.9150   17.8830 O.2   287  PHE287     -0.2867
    201  CB        -2.7930   22.7520   19.8980 C.3   287  PHE287      0.0534
    202  CG        -1.5200   23.5000   20.0820 C.ar  287  PHE287     -0.0203
    203  CD1       -1.1100   24.4050   19.1150 C.ar  287  PHE287     -0.0042
    204  CD2       -0.7860   23.3990   21.2420 C.ar  287  PHE287     -0.0042
    205  CE1        0.0200   25.1440   19.2670 C.ar  287  PHE287     -0.0003
    206  CE2        0.3550   24.1580   21.4070 C.ar  287  PHE287     -0.0003
    207  CZ         0.7550   25.0290   20.4150 C.ar  287  PHE287     -0.0000
    208  N          3.1510   30.5350   12.0270 N.3   307  PHE307     -0.1227
    209  CA         3.3580   31.2540   13.2870 C.3   307  PHE307      0.1736
    210  C          2.3580   30.9590   14.4140 C.2   307  PHE307      0.2595
    211  O          2.5810   31.3930   15.5370 O.2   307  PHE307     -0.2718
    212  CB         3.3800   32.7600   13.0240 C.3   307  PHE307      0.0547
    213  CG         4.5760   33.2250   12.2480 C.ar  307  PHE307     -0.0202
    214  CD1        4.5110   33.3870   10.8800 C.ar  307  PHE307     -0.0042
    215  CD2        5.7680   33.5180   12.8900 C.ar  307  PHE307     -0.0042
    216  CE1        5.6260   33.8270   10.1490 C.ar  307  PHE307     -0.0003
    217  CE2        6.8870   33.9620   12.1660 C.ar  307  PHE307     -0.0003
    218  CZ         6.8080   34.1150   10.7970 C.ar  307  PHE307     -0.0000
    219  N          1.2870   30.2230   14.1300 N.am  308  CYS308     -0.1970
    220  CA         0.2330   29.9620   15.1210 C.3   308  CYS308      0.1712
    221  C         -0.1900   31.2600   15.7970 C.2   308  CYS308      0.2296
    222  O         -0.1210   31.4330   17.0270 O.2   308  CYS308     -0.2864
    223  CB         0.6650   28.9200   16.1350 C.3   308  CYS308      0.0983
    224  SG        -0.7330   28.2380   17.0420 S.3   308  CYS308     -0.0798
@<TRIPOS>BOND
     1   216   218   ar
     2   216   214   ar
     3   218   217   ar
     4   214   213   ar
     5   106   105    2
     6   118   117    2
     7   117   116    1
     8   208   209    1
     9   217   215   ar
    10   103   104    1
    11   104   105    1
    12   104   107    1
    13   175   174    2
    14   213   215   ar
    15   213   212    1
    16   105   115   am
    17    97    96    2
    18   109   111   ar
    19   109   108   ar
    20    71    69   ar
    21    71    73   ar
    22    69    68   ar
    23   111   113   ar
    24   212   209    1
    25   174   173    1
    26   115   116    1
    27    96    95    1
    28   209   210    1
    29   171   170   ar
    30   171   169   ar
    31   116   119    1
    32   161   160    2
    33   107   108    1
    34   170   168   ar
    35   108   110   ar
    36    80    81    1
    37    83    82    2
    38   169   167   ar
    39    73    72   ar
    40    64    67    1
    41    64    63    1
    42    64    65    1
    43   113   114    1
    44   113   112   ar
    45   219   210   am
    46   219   220    1
    47    68    67    1
    48    68    70   ar
    49   168   165   ar
    50    82    81    1
    51   210   211    2
    52   119   120    1
    53   160   172   am
    54   160   159    1
    55    66    65    2
    56   173   172    1
    57   173   176    1
    58   149   148    2
    59    95    98    1
    60    95    94    1
    61    98    99    1
    62   110   112   ar
    63   167   165   ar
    64   167   166   ar
    65    81    84    1
    66   165   163   ar
    67    65    74   am
    68   220   221    1
    69   220   223    1
    70   122   123    1
    71   122   125    1
    72   122   121    1
    73   159   158    1
    74   159   162    1
    75    72    70   ar
    76   123   124    2
    77    94    92   am
    78    93    92    2
    79   176   177    1
    80   166   164   ar
    81   125   126    1
    82    92    91    1
    83   148   147    1
    84   221   222    2
    85    90    91    1
    86   163   164   ar
    87   163   162    1
    88    99   100    1
    89   223   224    1
    90    84    85    1
    91    74    75    1
    92   101   100    2
    93    76    77    2
    94    76    75    1
    95   182   179   ar
    96   182   184   ar
    97   150   147    1
    98   150   151    1
    99   147   146    1
   100    52    53    1
   101   177   179   ar
   102   177   178   ar
   103   100   102   am
   104   126   127    1
   105   153   151   ar
   106   153   155   ar
   107    75    78    1
   108    85    87   ar
   109    85    86   ar
   110   127   128    1
   111   179   181   ar
   112    55    54    2
   113    87    89   ar
   114    53    54    1
   115    53    56    1
   116   184   185   ar
   117   151   152   ar
   118    50    49    2
   119   143   142    2
   120   200   199    2
   121    41    40    1
   122   155   156   ar
   123   178   180   ar
   124   146   142   am
   125    42    40    1
   126    86    88   ar
   127    48    49    1
   128    48    47    1
   129   142   141    1
   130    78    79    1
   131    49    51   am
   132    89    88   ar
   133   128   129    2
   134   152   154   ar
   135   181   180   ar
   136   181   183   ar
   137    12    11    1
   138   130   129    1
   139    56    57    1
   140   185   183   ar
   141    40    39    1
   142    57    58    1
   143   156   154   ar
   144   156   157    1
   145   199   198    1
   146   203   205   ar
   147   203   202   ar
   148   135   134    2
   149   205   207   ar
   150    44    47    1
   151    44    43    1
   152    44    45    1
   153   129   131    1
   154    46    45    2
   155   198   201    1
   156   198   197    1
   157   201   202    1
   158   141   140    1
   159   141   144    1
   160    39    36    1
   161    11     9   ar
   162    11    10   ar
   163   132   133    1
   164   202   204   ar
   165     9     7   ar
   166   134   133    1
   167   207   206   ar
   168    58    59    1
   169    38    37    2
   170    36    37    1
   171    36    35    1
   172   144   145    1
   173   133   136    1
   174    10     8   ar
   175    59    60    2
   176   204   206   ar
   177     7     6   ar
   178   136   137    1
   179   138   137   ar
   180     8     6   ar
   181   137   139   ar
   182    60    62    1
   183    60    61    1
   184     6     5    1
   185    34    32    1
   186     4     3    2
   187   196   194   ar
   188   196   195   ar
   189    30    29    2
   190    27    28    1
   191    28    29    1
   192    28    31    1
   193   189   188    2
   194    19    21   ar
   195    19    18   ar
   196   194   192   ar
   197    21    22   ar
   198    32    31    1
   199    32    33    1
   200    16    15    2
   201   195   193   ar
   202     5     2    1
   203     3     2    1
   204     3    13   am
   205    14    15    1
   206    14    13    1
   207    14    17    1
   208     2     1    1
   209   192   191   ar
   210   188   187    1
   211    18    17    1
   212    18    20   ar
   213   193   191   ar
   214    22    24   ar
   215    22    20   ar
   216   191   190    1
   217    24    26   ar
   218    20    23   ar
   219   187   190    1
   220   187   186    1
   221    26    25   ar
   222    23    25   ar
