@<TRIPOS>MOLECULE
tmp/3dswB00.pdb
 188 188 0 0 0
SMALL
GASTEIGER

@<TRIPOS>ATOM
      1  N          1.3800   33.1680   26.0910 N.3    46  TYR46      -0.1227
      2  CA         1.2020   33.1480   24.6290 C.3    46  TYR46       0.1736
      3  C          0.0340   32.2130   24.2280 C.2    46  TYR46       0.2595
      4  O         -0.8220   32.5740   23.4070 O.2    46  TYR46      -0.2718
      5  CB         2.5420   32.8120   23.9220 C.3    46  TYR46       0.0548
      6  CG         2.3530   32.2490   22.5540 C.ar   46  TYR46      -0.0200
      7  CD1        1.8250   33.0220   21.5360 C.ar   46  TYR46      -0.0009
      8  CD2        2.5970   30.8990   22.3090 C.ar   46  TYR46      -0.0009
      9  CE1        1.5790   32.4720   20.2650 C.ar   46  TYR46       0.0417
     10  CE2        2.3690   30.3390   21.0710 C.ar   46  TYR46       0.0417
     11  CZ         1.8520   31.1240   20.0560 C.ar   46  TYR46       0.1957
     12  OH         1.6420   30.5340   18.8400 O.3    46  TYR46      -0.2866
     13  N         -0.0610   31.0420   24.8430 N.am   47  TRP47      -0.1976
     14  CA        -1.1170   30.1070   24.4760 C.3    47  TRP47       0.1640
     15  C         -2.4860   30.7120   24.7880 C.2    47  TRP47       0.2290
     16  O         -3.3850   30.6600   23.9700 O.2    47  TRP47      -0.2864
     17  CB        -0.9610   28.7480   25.1790 C.3    47  TRP47       0.0576
     18  CG         0.3570   28.0760   24.9360 C.ar   47  TRP47       0.0006
     19  CD1        1.1130   28.1510   23.8110 C.ar   47  TRP47       0.0946
     20  CD2        1.0700   27.2240   25.8440 C.ar   47  TRP47       0.0152
     21  NE1        2.2690   27.4170   23.9690 N.ar   47  TRP47      -0.2442
     22  CE2        2.2610   26.8380   25.2070 C.ar   47  TRP47       0.0810
     23  CE3        0.8150   26.7570   27.1320 C.ar   47  TRP47       0.0012
     24  CZ2        3.2060   26.0020   25.8150 C.ar   47  TRP47       0.0191
     25  CZ3        1.7570   25.9300   27.7430 C.ar   47  TRP47       0.0001
     26  CH2        2.9320   25.5530   27.0710 C.ar   47  TRP47       0.0015
     27  N         13.0960   29.7080   23.2990 N.3    91  LEU91      -0.1245
     28  CA        11.6770   29.3650   23.3770 C.3    91  LEU91       0.1561
     29  C         10.8060   30.5230   23.8830 C.2    91  LEU91       0.2260
     30  O          9.7670   30.8100   23.3120 O.2    91  LEU91      -0.2867
     31  CB        11.4480   28.1620   24.2930 C.3    91  LEU91       0.0270
     32  CG        11.9880   26.8330   23.7770 C.3    91  LEU91       0.0019
     33  CD1       12.0510   25.8010   24.9360 C.3    91  LEU91       0.0001
     34  CD2       11.1620   26.3300   22.5860 C.3    91  LEU91       0.0001
     35  N         10.8150   33.7100   21.6500 N.3    94  LEU94      -0.1245
     36  CA         9.8230   33.6460   20.5860 C.3    94  LEU94       0.1561
     37  C          8.4330   33.9710   21.1130 C.2    94  LEU94       0.2260
     38  O          7.7140   34.7920   20.5250 O.2    94  LEU94      -0.2867
     39  CB         9.8000   32.2740   19.9130 C.3    94  LEU94       0.0270
     40  CG         8.6260   31.9970   18.9730 C.3    94  LEU94       0.0019
     41  CD1        8.5620   33.0140   17.8750 C.3    94  LEU94       0.0001
     42  CD2        8.6700   30.5960   18.3920 C.3    94  LEU94       0.0001
     43  N          6.0140   36.9510   20.0100 N.3    98  GLN98      -0.1245
     44  CA         4.7000   36.6290   19.4490 C.3    98  GLN98       0.1566
     45  C          3.6170   37.3960   20.1910 C.2    98  GLN98       0.2260
     46  O          2.7170   37.9360   19.5790 O.2    98  GLN98      -0.2867
     47  CB         4.3930   35.1390   19.5440 C.3    98  GLN98       0.0367
     48  CG         5.0760   34.2890   18.4770 C.3    98  GLN98       0.0905
     49  CD         4.8990   32.8170   18.7390 C.2    98  GLN98       0.2608
     50  OE1        5.2250   32.3370   19.8280 O.2    98  GLN98      -0.2717
     51  NE2        4.3790   32.0880   17.7540 N.am   98  GLN98      -0.0878
     52  N         13.9040   22.5570   16.7460 N.3   139  ARG139     -0.1245
     53  CA        12.9440   23.4400   17.4160 C.3   139  ARG139      0.1563
     54  C         13.5040   24.8750   17.4900 C.2   139  ARG139      0.2260
     55  O         12.7460   25.8490   17.3210 O.2   139  ARG139     -0.2867
     56  CB        12.6410   22.9920   18.8470 C.3   139  ARG139      0.0307
     57  CG        11.6180   21.8850   19.0360 C.3   139  ARG139      0.0489
     58  CD        11.4250   21.6560   20.5550 C.3   139  ARG139      0.2205
     59  NE        12.6310   21.0720   21.1370 N.pl3 139  ARG139     -0.0865
     60  CZ        13.0630   21.2450   22.3870 C.cat 139  ARG139      0.5346
     61  NH1       12.3960   22.0010   23.2470 N.pl3 139  ARG139      0.1354
     62  NH2       14.1910   20.6470   22.7860 N.pl3 139  ARG139      0.1354
     63  N         13.6930   26.9170   14.2240 N.3   142  PHE142     -0.1227
     64  CA        12.4000   27.5560   14.0020 C.3   142  PHE142      0.1736
     65  C         12.1670   28.7700   14.9240 C.2   142  PHE142      0.2595
     66  O         11.7410   29.8170   14.4670 O.2   142  PHE142     -0.2718
     67  CB        11.2550   26.5440   14.1450 C.3   142  PHE142      0.0547
     68  CG         9.9100   27.1670   14.0680 C.ar  142  PHE142     -0.0202
     69  CD1        9.4240   27.6370   12.8640 C.ar  142  PHE142     -0.0042
     70  CD2        9.1420   27.3470   15.2190 C.ar  142  PHE142     -0.0042
     71  CE1        8.1800   28.2520   12.7910 C.ar  142  PHE142     -0.0003
     72  CE2        7.8900   27.9600   15.1550 C.ar  142  PHE142     -0.0003
     73  CZ         7.4130   28.4050   13.9410 C.ar  142  PHE142     -0.0000
     74  N         12.4070   28.6340   16.2260 N.am  143  CYS143     -0.1970
     75  CA        12.3010   29.7950   17.1290 C.3   143  CYS143      0.1712
     76  C         13.1550   30.9670   16.6840 C.2   143  CYS143      0.2296
     77  O         12.7480   32.1390   16.7850 O.2   143  CYS143     -0.2864
     78  CB        12.7160   29.4260   18.5460 C.3   143  CYS143      0.0983
     79  SG        11.6200   28.2630   19.3400 S.3   143  CYS143     -0.0798
     80  N          9.2070   13.0840   13.7560 N.3   185  HIS185     -0.1241
     81  CA         8.1910   13.2890   14.7790 C.3   185  HIS185      0.1621
     82  C          7.3990   14.5260   14.3470 C.2   185  HIS185      0.2264
     83  O          7.9950   15.5020   13.9400 O.2   185  HIS185     -0.2867
     84  CB         8.9200   13.5100   16.1160 C.3   185  HIS185      0.0745
     85  CG         8.0270   13.8640   17.2460 C.ar  185  HIS185      0.0817
     86  ND1        7.4010   15.0860   17.3400 N.ar  185  HIS185     -0.2268
     87  CD2        7.6520   13.1640   18.3410 C.ar  185  HIS185      0.1154
     88  CE1        6.6450   15.1130   18.4230 C.ar  185  HIS185      0.1986
     89  NE2        6.7870   13.9630   19.0540 N.ar  185  HIS185     -0.2212
     90  N          6.0840   17.0480   15.7070 N.3   187  GLY187     -0.1210
     91  CA         6.4730   18.3150   16.3370 C.3   187  GLY187      0.1956
     92  C          7.6570   18.9230   15.6340 C.2   187  GLY187      0.2611
     93  O          7.6710   20.1170   15.3260 O.2   187  GLY187     -0.2717
     94  N          8.6630   18.0950   15.3820 N.am  188  GLN188     -0.1979
     95  CA         9.8400   18.5080   14.6440 C.3   188  GLN188      0.1601
     96  C          9.5380   18.8410   13.2110 C.2   188  GLN188      0.2287
     97  O         10.1200   19.7550   12.6380 O.2   188  GLN188     -0.2864
     98  CB        10.8940   17.4080   14.6140 C.3   188  GLN188      0.0394
     99  CG        11.4200   16.9650   15.9530 C.3   188  GLN188      0.0908
    100  CD        11.8490   18.0880   16.8380 C.2   188  GLN188      0.2608
    101  OE1       12.4600   19.0670   16.3970 O.2   188  GLN188     -0.2717
    102  NE2       11.5370   17.9530   18.1040 N.am  188  GLN188     -0.0878
    103  N          6.7430   20.0540   12.1210 N.3   190  TYR190     -0.1227
    104  CA         6.1240   21.3900   12.1630 C.3   190  TYR190      0.1736
    105  C          7.2330   22.4770   12.1980 C.2   190  TYR190      0.2595
    106  O          7.2290   23.4470   11.4150 O.2   190  TYR190     -0.2718
    107  CB         5.1420   21.5220   13.3500 C.3   190  TYR190      0.0548
    108  CG         4.7830   22.9780   13.5950 C.ar  190  TYR190     -0.0200
    109  CD1        3.9750   23.6600   12.7100 C.ar  190  TYR190     -0.0009
    110  CD2        5.3510   23.6980   14.6450 C.ar  190  TYR190     -0.0009
    111  CE1        3.7020   25.0320   12.8870 C.ar  190  TYR190      0.0417
    112  CE2        5.0820   25.0570   14.8230 C.ar  190  TYR190      0.0417
    113  CZ         4.2550   25.7160   13.9390 C.ar  190  TYR190      0.1957
    114  OH         3.9570   27.0700   14.1100 O.3   190  TYR190     -0.2866
    115  N          8.2000   22.3010   13.0840 N.am  191  CYS191     -0.1970
    116  CA         9.2800   23.2840   13.2240 C.3   191  CYS191      0.1712
    117  C         10.0920   23.4340   11.9360 C.2   191  CYS191      0.2296
    118  O         10.4410   24.5300   11.5180 O.2   191  CYS191     -0.2864
    119  CB        10.2020   22.9030   14.3780 C.3   191  CYS191      0.0983
    120  SG         9.4370   23.1010   15.9900 S.3   191  CYS191     -0.0798
    121  N         -1.6990   17.2450   18.2560 N.3   236  TYR236     -0.1241
    122  CA        -1.2530   16.8460   16.8990 C.3   236  TYR236      0.1605
    123  C         -2.2220   17.3450   15.8360 C.2   236  TYR236      0.2264
    124  O         -1.8410   17.5390   14.6840 O.2   236  TYR236     -0.2867
    125  CB        -0.9080   15.3630   16.8370 C.3   236  TYR236      0.0534
    126  CG         0.3340   15.0800   17.6780 C.ar  236  TYR236     -0.0201
    127  CD1        1.5710   15.6030   17.3260 C.ar  236  TYR236     -0.0009
    128  CD2        0.2530   14.3380   18.8370 C.ar  236  TYR236     -0.0009
    129  CE1        2.7180   15.3820   18.1140 C.ar  236  TYR236      0.0417
    130  CE2        1.3740   14.0950   19.6260 C.ar  236  TYR236      0.0417
    131  CZ         2.6020   14.6180   19.2640 C.ar  236  TYR236      0.1957
    132  OH         3.7050   14.3800   20.0590 O.3   236  TYR236     -0.2866
    133  N         -2.8090   20.2640   15.7310 N.3   238  TRP238     -0.1227
    134  CA        -2.0370   21.3850   15.2580 C.3   238  TRP238      0.1737
    135  C         -0.7540   20.9790   14.5370 C.2   238  TRP238      0.2595
    136  O         -0.5410   21.4030   13.4080 O.2   238  TRP238     -0.2718
    137  CB        -1.7290   22.4030   16.3590 C.3   238  TRP238      0.0564
    138  CG        -0.9060   23.5420   15.8250 C.ar  238  TRP238      0.0003
    139  CD1        0.4000   23.7310   16.0290 C.ar  238  TRP238      0.0946
    140  CD2       -1.3260   24.5880   14.9300 C.ar  238  TRP238      0.0152
    141  NE1        0.8410   24.8380   15.3530 N.ar  238  TRP238     -0.2442
    142  CE2       -0.2100   25.3910   14.6790 C.ar  238  TRP238      0.0810
    143  CE3       -2.5380   24.9220   14.3270 C.ar  238  TRP238      0.0012
    144  CZ2       -0.2640   26.5120   13.8650 C.ar  238  TRP238      0.0191
    145  CZ3       -2.5910   26.0150   13.5200 C.ar  238  TRP238      0.0001
    146  CH2       -1.4710   26.8200   13.3110 C.ar  238  TRP238      0.0015
    147  N          0.0990   20.1820   15.1630 N.am  239  TRP239     -0.1976
    148  CA         1.4240   19.9490   14.5610 C.3   239  TRP239      0.1640
    149  C          1.3070   19.3380   13.1650 C.2   239  TRP239      0.2290
    150  O          1.9280   19.8110   12.2210 O.2   239  TRP239     -0.2864
    151  CB         2.3410   19.1080   15.4620 C.3   239  TRP239      0.0576
    152  CG         2.3940   19.5960   16.8970 C.ar  239  TRP239      0.0006
    153  CD1        1.9890   18.8970   17.9930 C.ar  239  TRP239      0.0946
    154  CD2        2.8340   20.8840   17.3890 C.ar  239  TRP239      0.0152
    155  NE1        2.1520   19.6460   19.1200 N.ar  239  TRP239     -0.2442
    156  CE2        2.6600   20.8710   18.7880 C.ar  239  TRP239      0.0810
    157  CE3        3.3480   22.0260   16.7890 C.ar  239  TRP239      0.0012
    158  CZ2        3.0140   21.9480   19.6080 C.ar  239  TRP239      0.0191
    159  CZ3        3.7020   23.1030   17.5900 C.ar  239  TRP239      0.0001
    160  CH2        3.5230   23.0660   18.9890 C.ar  239  TRP239      0.0015
    161  N         -4.3460   24.4180   20.8810 N.3   288  PHE288     -0.1241
    162  CA        -4.1200   23.5870   19.6990 C.3   288  PHE288      0.1605
    163  C         -5.3960   22.9440   19.1230 C.2   288  PHE288      0.2264
    164  O         -5.5420   22.8390   17.8960 O.2   288  PHE288     -0.2867
    165  CB        -2.9330   22.6710   19.9350 C.3   288  PHE288      0.0534
    166  CG        -1.6810   23.4380   20.0790 C.ar  288  PHE288     -0.0203
    167  CD1       -1.3210   24.3460   19.0970 C.ar  288  PHE288     -0.0042
    168  CD2       -0.9240   23.3630   21.2260 C.ar  288  PHE288     -0.0042
    169  CE1       -0.2090   25.1190   19.2180 C.ar  288  PHE288     -0.0003
    170  CE2        0.2080   24.1410   21.3610 C.ar  288  PHE288     -0.0003
    171  CZ         0.5720   25.0180   20.3470 C.ar  288  PHE288     -0.0000
    172  N          3.0580   30.6390   12.0040 N.3   308  PHE308     -0.1227
    173  CA         3.2570   31.3300   13.2770 C.3   308  PHE308      0.1736
    174  C          2.2410   31.0270   14.4010 C.2   308  PHE308      0.2595
    175  O          2.3950   31.5310   15.5200 O.2   308  PHE308     -0.2718
    176  CB         3.2970   32.8410   13.0300 C.3   308  PHE308      0.0547
    177  CG         4.4330   33.2740   12.1800 C.ar  308  PHE308     -0.0202
    178  CD1        4.2620   33.5100   10.8330 C.ar  308  PHE308     -0.0042
    179  CD2        5.6890   33.4330   12.7140 C.ar  308  PHE308     -0.0042
    180  CE1        5.3310   33.9050   10.0380 C.ar  308  PHE308     -0.0003
    181  CE2        6.7680   33.8290   11.9120 C.ar  308  PHE308     -0.0003
    182  CZ         6.5860   34.0740   10.5890 C.ar  308  PHE308     -0.0000
    183  N          1.2240   30.2170   14.1180 N.am  309  CYS309     -0.1970
    184  CA         0.1670   29.9470   15.0920 C.3   309  CYS309      0.1712
    185  C         -0.2960   31.2520   15.7740 C.2   309  CYS309      0.2296
    186  O         -0.2680   31.3920   16.9960 O.2   309  CYS309     -0.2864
    187  CB         0.6350   28.9220   16.1240 C.3   309  CYS309      0.0983
    188  SG        -0.7200   28.2080   17.0640 S.3   309  CYS309     -0.0798
@<TRIPOS>BOND
     1   180   182   ar
     2   180   178   ar
     3   182   181   ar
     4   178   177   ar
     5   106   105    2
     6   118   117    2
     7   181   179   ar
     8   117   116    1
     9   172   173    1
    10   103   104    1
    11   104   105    1
    12   104   107    1
    13   177   179   ar
    14   177   176    1
    15   105   115   am
    16   150   149    2
    17    97    96    2
    18   109   111   ar
    19   109   108   ar
    20    71    69   ar
    21    71    73   ar
    22    69    68   ar
    23   111   113   ar
    24   176   173    1
    25   115   116    1
    26   149   148    1
    27    96    95    1
    28   116   119    1
    29   173   174    1
    30   146   145   ar
    31   146   144   ar
    32   107   108    1
    33   136   135    2
    34   145   143   ar
    35   108   110   ar
    36    80    81    1
    37   144   142   ar
    38   113   114    1
    39   113   112   ar
    40    83    82    2
    41    73    72   ar
    42    64    67    1
    43    64    63    1
    44    64    65    1
    45    68    67    1
    46    68    70   ar
    47   183   174   am
    48   183   184    1
    49   143   140   ar
    50    82    81    1
    51   119   120    1
    52   174   175    2
    53    66    65    2
    54   135   147   am
    55   135   134    1
    56   148   147    1
    57   148   151    1
    58    98    95    1
    59    98    99    1
    60    95    94    1
    61   110   112   ar
    62   142   140   ar
    63   142   141   ar
    64   124   123    2
    65    81    84    1
    66    65    74   am
    67   140   138   ar
    68   184   185    1
    69   184   187    1
    70    72    70   ar
    71   134   133    1
    72   134   137    1
    73    93    92    2
    74   141   139   ar
    75    94    92   am
    76   151   152    1
    77    92    91    1
    78    90    91    1
    79   185   186    2
    80   138   139   ar
    81   138   137    1
    82   123   122    1
    83    99   100    1
    84    84    85    1
    85   187   188    1
    86    74    75    1
    87   101   100    2
    88    76    77    2
    89    76    75    1
    90    52    53    1
    91   157   154   ar
    92   157   159   ar
    93   125   122    1
    94   125   126    1
    95   100   102   am
    96   152   154   ar
    97   152   153   ar
    98   122   121    1
    99    75    78    1
   100    85    86   ar
   101    85    87   ar
   102    55    54    2
   103   127   126   ar
   104   127   129   ar
   105    86    88   ar
   106   154   156   ar
   107    53    54    1
   108    53    56    1
   109   159   160   ar
   110   126   128   ar
   111    51    49   am
   112    41    40    1
   113   164   163    2
   114   153   155   ar
   115   129   131   ar
   116    87    89   ar
   117    42    40    1
   118    88    89   ar
   119    48    49    1
   120    48    47    1
   121    78    79    1
   122    49    50    2
   123   156   155   ar
   124   156   158   ar
   125   128   130   ar
   126    12    11    1
   127    56    57    1
   128    40    39    1
   129   160   158   ar
   130    57    58    1
   131   167   169   ar
   132   167   166   ar
   133   163   162    1
   134   169   171   ar
   135   131   130   ar
   136   131   132    1
   137    44    47    1
   138    44    43    1
   139    44    45    1
   140    46    45    2
   141   162   165    1
   142   162   161    1
   143    39    36    1
   144   165   166    1
   145    11     9   ar
   146    11    10   ar
   147   166   168   ar
   148     9     7   ar
   149   171   170   ar
   150    38    37    2
   151    58    59    1
   152    36    37    1
   153    36    35    1
   154    10     8   ar
   155    59    60    2
   156   168   170   ar
   157     7     6   ar
   158     8     6   ar
   159    60    62    1
   160    60    61    1
   161     6     5    1
   162    34    32    1
   163    27    28    1
   164    30    29    2
   165    28    29    1
   166    28    31    1
   167     4     3    2
   168    32    31    1
   169    32    33    1
   170    19    21   ar
   171    19    18   ar
   172     5     2    1
   173    21    22   ar
   174    16    15    2
   175     3     2    1
   176     3    13   am
   177    14    15    1
   178    14    13    1
   179    14    17    1
   180     2     1    1
   181    18    17    1
   182    18    20   ar
   183    22    24   ar
   184    22    20   ar
   185    24    26   ar
   186    20    23   ar
   187    26    25   ar
   188    23    25   ar
