@<TRIPOS>MOLECULE
tmp/3dsxB00.pdb
 223 223 0 0 0
SMALL
GASTEIGER

@<TRIPOS>ATOM
      1  N          1.5240   33.3160   26.1790 N.3    45  TYR45      -0.1227
      2  CA         1.3490   33.2820   24.7190 C.3    45  TYR45       0.1736
      3  C          0.1730   32.3600   24.2860 C.2    45  TYR45       0.2595
      4  O         -0.6650   32.7440   23.4460 O.2    45  TYR45      -0.2718
      5  CB         2.6760   32.8920   24.0100 C.3    45  TYR45       0.0548
      6  CG         2.4670   32.3300   22.6350 C.ar   45  TYR45      -0.0200
      7  CD1        1.9200   33.1060   21.6150 C.ar   45  TYR45      -0.0009
      8  CD2        2.7690   30.9980   22.3610 C.ar   45  TYR45      -0.0009
      9  CE1        1.6920   32.5440   20.3330 C.ar   45  TYR45       0.0417
     10  CE2        2.5460   30.4380   21.1120 C.ar   45  TYR45       0.0417
     11  CZ         2.0110   31.2060   20.1130 C.ar   45  TYR45       0.1957
     12  OH         1.8050   30.6170   18.8960 O.3    45  TYR45      -0.2866
     13  N          0.0920   31.1610   24.8570 N.am   46  TRP46      -0.1976
     14  CA        -0.9580   30.2250   24.4610 C.3    46  TRP46       0.1640
     15  C         -2.3300   30.8160   24.7670 C.2    46  TRP46       0.2290
     16  O         -3.2140   30.7800   23.9290 O.2    46  TRP46      -0.2864
     17  CB        -0.8090   28.8650   25.1540 C.3    46  TRP46       0.0576
     18  CG         0.5090   28.1940   24.9030 C.ar   46  TRP46       0.0006
     19  CD1        1.2680   28.2680   23.7700 C.ar   46  TRP46       0.0946
     20  CD2        1.2120   27.3480   25.8020 C.ar   46  TRP46       0.0152
     21  NE1        2.4060   27.5160   23.9210 N.ar   46  TRP46      -0.2442
     22  CE2        2.3910   26.9410   25.1580 C.ar   46  TRP46       0.0810
     23  CE3        0.9590   26.8930   27.1000 C.ar   46  TRP46       0.0012
     24  CZ2        3.3250   26.1110   25.7670 C.ar   46  TRP46       0.0191
     25  CZ3        1.8770   26.0890   27.7030 C.ar   46  TRP46       0.0001
     26  CH2        3.0510   25.6890   27.0300 C.ar   46  TRP46       0.0015
     27  N         13.1570   29.8050   23.4680 N.3    90  LEU90      -0.1245
     28  CA        11.7650   29.4440   23.4680 C.3    90  LEU90       0.1561
     29  C         10.9250   30.6150   23.9450 C.2    90  LEU90       0.2260
     30  O          9.9140   30.9130   23.3510 O.2    90  LEU90      -0.2867
     31  CB        11.5070   28.2330   24.3610 C.3    90  LEU90       0.0270
     32  CG        12.0120   26.8690   23.8840 C.3    90  LEU90       0.0019
     33  CD1       12.0100   25.8940   25.0640 C.3    90  LEU90       0.0001
     34  CD2       11.1710   26.3320   22.7510 C.3    90  LEU90       0.0001
     35  N         10.9940   33.7900   21.7370 N.3    93  LEU93      -0.1245
     36  CA         9.9960   33.7230   20.6960 C.3    93  LEU93       0.1561
     37  C          8.6100   34.0560   21.2500 C.2    93  LEU93       0.2260
     38  O          7.8930   34.8850   20.6730 O.2    93  LEU93      -0.2867
     39  CB         9.9530   32.3440   20.0130 C.3    93  LEU93       0.0270
     40  CG         8.7620   32.1660   19.0630 C.3    93  LEU93       0.0019
     41  CD1        8.7260   33.2010   17.9620 C.3    93  LEU93       0.0001
     42  CD2        8.6880   30.7850   18.4500 C.3    93  LEU93       0.0001
     43  N          6.1380   37.0500   20.0730 N.3    97  GLN97      -0.1245
     44  CA         4.8100   36.7640   19.5470 C.3    97  GLN97       0.1566
     45  C          3.7580   37.5770   20.2790 C.2    97  GLN97       0.2260
     46  O          2.9090   38.1720   19.6620 O.2    97  GLN97      -0.2867
     47  CB         4.4900   35.2870   19.6550 C.3    97  GLN97       0.0367
     48  CG         5.2130   34.4560   18.5860 C.3    97  GLN97       0.0905
     49  CD         4.9860   32.9770   18.7530 C.2    97  GLN97       0.2608
     50  OE1        5.2880   32.3950   19.8080 O.2    97  GLN97      -0.2717
     51  NE2        4.4550   32.3530   17.7220 N.am   97  GLN97      -0.0878
     52  N         13.9690   22.6160   16.9200 N.3   138  ARG138     -0.1245
     53  CA        13.0200   23.5280   17.5930 C.3   138  ARG138      0.1563
     54  C         13.5660   24.9640   17.6620 C.2   138  ARG138      0.2260
     55  O         12.8270   25.9530   17.4720 O.2   138  ARG138     -0.2867
     56  CB        12.7440   23.0680   19.0180 C.3   138  ARG138      0.0307
     57  CG        11.6860   22.0130   19.1760 C.3   138  ARG138      0.0489
     58  CD        11.4310   21.7680   20.6640 C.3   138  ARG138      0.2205
     59  NE        12.5590   21.0700   21.2710 N.pl3 138  ARG138     -0.0865
     60  CZ        13.0160   21.2400   22.5160 C.cat 138  ARG138      0.5346
     61  NH1       12.4580   22.0960   23.3620 N.pl3 138  ARG138      0.1354
     62  NH2       14.0620   20.5390   22.9190 N.pl3 138  ARG138      0.1354
     63  N         13.8040   26.9540   14.3780 N.3   141  PHE141     -0.1227
     64  CA        12.5070   27.5790   14.1100 C.3   141  PHE141      0.1736
     65  C         12.2920   28.8050   15.0260 C.2   141  PHE141      0.2595
     66  O         11.9070   29.8700   14.5600 O.2   141  PHE141     -0.2718
     67  CB        11.3380   26.5760   14.2410 C.3   141  PHE141      0.0547
     68  CG         9.9950   27.2370   14.1730 C.ar  141  PHE141     -0.0202
     69  CD1        9.5300   27.7490   12.9670 C.ar  141  PHE141     -0.0042
     70  CD2        9.2420   27.4410   15.3240 C.ar  141  PHE141     -0.0042
     71  CE1        8.3200   28.3910   12.8840 C.ar  141  PHE141     -0.0003
     72  CE2        8.0160   28.1260   15.2550 C.ar  141  PHE141     -0.0003
     73  CZ         7.5670   28.5990   14.0360 C.ar  141  PHE141     -0.0000
     74  N         12.5790   28.6770   16.3150 N.am  142  CYS142     -0.1970
     75  CA        12.4730   29.8060   17.2360 C.3   142  CYS142      0.1712
     76  C         13.3300   30.9890   16.7960 C.2   142  CYS142      0.2296
     77  O         12.8860   32.1220   16.8350 O.2   142  CYS142     -0.2864
     78  CB        12.8600   29.4110   18.6650 C.3   142  CYS142      0.0983
     79  SG        11.6910   28.3000   19.4900 S.3   142  CYS142     -0.0798
     80  N          9.3810   13.2100   13.8090 N.3   184  HIS184     -0.1241
     81  CA         8.3120   13.4330   14.7680 C.3   184  HIS184      0.1621
     82  C          7.5140   14.6710   14.3810 C.2   184  HIS184      0.2264
     83  O          8.0890   15.6780   13.9830 O.2   184  HIS184     -0.2867
     84  CB         8.8920   13.5960   16.1620 C.3   184  HIS184      0.0745
     85  CG         7.8560   13.8420   17.2030 C.ar  184  HIS184      0.0817
     86  ND1        7.3070   15.0840   17.4210 N.ar  184  HIS184     -0.2268
     87  CD2        7.2230   12.9960   18.0470 C.ar  184  HIS184      0.1154
     88  CE1        6.3910   14.9970   18.3680 C.ar  184  HIS184      0.1986
     89  NE2        6.3250   13.7410   18.7710 N.ar  184  HIS184     -0.2212
     90  N          6.1670   17.1700   15.7770 N.3   186  GLY186     -0.1210
     91  CA         6.5590   18.4190   16.4200 C.3   186  GLY186      0.1956
     92  C          7.7610   19.0490   15.7520 C.2   186  GLY186      0.2611
     93  O          7.7880   20.2550   15.5070 O.2   186  GLY186     -0.2717
     94  N          8.7510   18.2200   15.4560 N.am  187  GLN187     -0.1979
     95  CA         9.9510   18.6590   14.7570 C.3   187  GLN187      0.1601
     96  C          9.6480   18.9920   13.3150 C.2   187  GLN187      0.2287
     97  O         10.1850   19.9520   12.7480 O.2   187  GLN187     -0.2864
     98  CB        11.0100   17.5630   14.7810 C.3   187  GLN187      0.0394
     99  CG        11.3670   17.0610   16.1620 C.3   187  GLN187      0.0908
    100  CD        11.9060   18.1330   17.0370 C.2   187  GLN187      0.2608
    101  OE1       12.5330   19.0860   16.5720 O.2   187  GLN187     -0.2717
    102  NE2       11.6630   17.9970   18.3140 N.am  187  GLN187     -0.0878
    103  N          6.8170   20.2350   12.1880 N.3   189  TYR189     -0.1227
    104  CA         6.2320   21.5860   12.2090 C.3   189  TYR189      0.1736
    105  C          7.3330   22.6720   12.2820 C.2   189  TYR189      0.2595
    106  O          7.3210   23.6630   11.5340 O.2   189  TYR189     -0.2718
    107  CB         5.2230   21.7410   13.3670 C.3   189  TYR189      0.0548
    108  CG         4.9080   23.1780   13.6380 C.ar  189  TYR189     -0.0200
    109  CD1        4.0980   23.9140   12.7760 C.ar  189  TYR189     -0.0009
    110  CD2        5.4850   23.8470   14.7170 C.ar  189  TYR189     -0.0009
    111  CE1        3.8560   25.2830   13.0080 C.ar  189  TYR189      0.0417
    112  CE2        5.2370   25.1940   14.9320 C.ar  189  TYR189      0.0417
    113  CZ         4.4230   25.8960   14.0930 C.ar  189  TYR189      0.1957
    114  OH         4.1980   27.2490   14.3480 O.3   189  TYR189     -0.2866
    115  N          8.2870   22.4740   13.1760 N.am  190  CYS190     -0.1970
    116  CA         9.3920   23.4190   13.3230 C.3   190  CYS190      0.1712
    117  C         10.1890   23.5660   12.0280 C.2   190  CYS190      0.2296
    118  O         10.4940   24.6720   11.5950 O.2   190  CYS190     -0.2864
    119  CB        10.3140   22.9700   14.4410 C.3   190  CYS190      0.0983
    120  SG         9.5640   23.1290   16.0620 S.3   190  CYS190     -0.0798
    121  N         -3.5330   12.6780   20.0270 N.3   232  ASP232     -0.1239
    122  CA        -3.4510   13.7670   20.9840 C.3   232  ASP232      0.1674
    123  C         -3.8960   15.0050   20.2260 C.2   232  ASP232      0.2266
    124  O         -3.5030   15.2240   19.0590 O.2   232  ASP232     -0.2867
    125  CB        -2.0280   13.8700   21.5510 C.3   232  ASP232      0.1410
    126  CG        -1.8020   15.0910   22.4120 C.2   232  ASP232      0.3668
    127  OD1       -2.6370   15.9980   22.4660 O.co2 232  ASP232     -0.2456
    128  OD2       -0.7450   15.1570   23.0470 O.co2 232  ASP232     -0.2456
    129  N         -3.2320   18.0770   20.4760 N.3   234  CYS234     -0.1221
    130  CA        -2.2340   19.0500   20.0180 C.3   234  CYS234      0.1808
    131  C         -1.6160   18.6830   18.6610 C.2   234  CYS234      0.2601
    132  O         -1.0850   19.5520   17.9740 O.2   234  CYS234     -0.2717
    133  CB        -1.1600   19.3300   21.0680 C.3   234  CYS234      0.0970
    134  SG        -0.0430   17.9810   21.5290 S.3   234  CYS234     -0.0800
    135  N         -1.7070   17.4230   18.2410 N.am  235  TYR235     -0.1976
    136  CA        -1.3330   17.0670   16.8460 C.3   235  TYR235      0.1639
    137  C         -2.2570   17.6540   15.7780 C.2   235  TYR235      0.2290
    138  O         -1.8710   17.8040   14.6250 O.2   235  TYR235     -0.2864
    139  CB        -1.1430   15.5700   16.7050 C.3   235  TYR235      0.0560
    140  CG         0.0280   15.1390   17.5390 C.ar  235  TYR235     -0.0198
    141  CD1       -0.1420   14.3350   18.6380 C.ar  235  TYR235     -0.0009
    142  CD2        1.2950   15.6230   17.2730 C.ar  235  TYR235     -0.0009
    143  CE1        0.9370   13.9870   19.4350 C.ar  235  TYR235      0.0417
    144  CE2        2.3700   15.2940   18.0580 C.ar  235  TYR235      0.0417
    145  CZ         2.1860   14.4760   19.1300 C.ar  235  TYR235      0.1957
    146  OH         3.2550   14.1410   19.8990 O.3   235  TYR235     -0.2866
    147  N         -2.6650   20.5960   15.7230 N.3   237  TRP237     -0.1227
    148  CA        -1.8610   21.6950   15.2860 C.3   237  TRP237      0.1737
    149  C         -0.6570   21.1590   14.5170 C.2   237  TRP237      0.2595
    150  O         -0.4880   21.4880   13.3470 O.2   237  TRP237     -0.2718
    151  CB        -1.4430   22.6190   16.4170 C.3   237  TRP237      0.0564
    152  CG        -0.5990   23.7190   15.9040 C.ar  237  TRP237      0.0003
    153  CD1        0.7250   23.8900   16.1170 C.ar  237  TRP237      0.0946
    154  CD2       -0.9920   24.7470   14.9860 C.ar  237  TRP237      0.0152
    155  NE1        1.1810   24.9770   15.4210 N.ar  237  TRP237     -0.2442
    156  CE2        0.1430   25.5230   14.7220 C.ar  237  TRP237      0.0810
    157  CE3       -2.1970   25.0860   14.3710 C.ar  237  TRP237      0.0012
    158  CZ2        0.1110   26.6220   13.9050 C.ar  237  TRP237      0.0191
    159  CZ3       -2.2300   26.1700   13.5520 C.ar  237  TRP237      0.0001
    160  CH2       -1.0890   26.9360   13.3270 C.ar  237  TRP237      0.0015
    161  N          0.1550   20.3290   15.1620 N.am  238  TRP238     -0.1976
    162  CA         1.4940   20.0400   14.6270 C.3   238  TRP238      0.1640
    163  C          1.3950   19.4120   13.2470 C.2   238  TRP238      0.2290
    164  O          2.0550   19.8540   12.3130 O.2   238  TRP238     -0.2864
    165  CB         2.3340   19.1660   15.5740 C.3   238  TRP238      0.0576
    166  CG         2.3330   19.6160   16.9990 C.ar  238  TRP238      0.0006
    167  CD1        1.8180   18.9310   18.0520 C.ar  238  TRP238      0.0946
    168  CD2        2.8340   20.8670   17.5490 C.ar  238  TRP238      0.0152
    169  NE1        1.9690   19.6490   19.2030 N.ar  238  TRP238     -0.2442
    170  CE2        2.5820   20.8390   18.9330 C.ar  238  TRP238      0.0810
    171  CE3        3.4690   21.9770   17.0090 C.ar  238  TRP238      0.0012
    172  CZ2        2.9660   21.8780   19.8060 C.ar  238  TRP238      0.0191
    173  CZ3        3.8380   23.0270   17.8710 C.ar  238  TRP238      0.0001
    174  CH2        3.5800   22.9680   19.2520 C.ar  238  TRP238      0.0015
    175  N         -2.6170   24.7800   26.9230 N.3   283  PHE283     -0.1227
    176  CA        -1.8010   24.3240   25.8000 C.3   283  PHE283      0.1736
    177  C         -2.6930   23.5920   24.8110 C.2   283  PHE283      0.2595
    178  O         -2.7390   23.9510   23.6480 O.2   283  PHE283     -0.2718
    179  CB        -0.6860   23.4200   26.3490 C.3   283  PHE283      0.0547
    180  CG         0.2080   22.7770   25.3090 C.ar  283  PHE283     -0.0202
    181  CD1       -0.0950   21.5270   24.7760 C.ar  283  PHE283     -0.0042
    182  CD2        1.4220   23.3540   24.9780 C.ar  283  PHE283     -0.0042
    183  CE1        0.7730   20.8970   23.8630 C.ar  283  PHE283     -0.0003
    184  CE2        2.2960   22.7420   24.0670 C.ar  283  PHE283     -0.0003
    185  CZ         1.9690   21.5030   23.5110 C.ar  283  PHE283     -0.0000
    186  N         -3.4630   22.6160   25.2780 N.am  284  HIS284     -0.1975
    187  CA        -4.3230   21.8620   24.3680 C.3   284  HIS284      0.1656
    188  C         -5.5290   22.6750   23.9130 C.2   284  HIS284      0.2291
    189  O         -6.0640   22.4280   22.8470 O.2   284  HIS284     -0.2864
    190  CB        -4.6920   20.5020   24.9660 C.3   284  HIS284      0.0771
    191  CG        -3.5140   19.5880   25.0660 C.ar  284  HIS284      0.0820
    192  ND1       -2.7400   19.4840   26.2030 N.ar  284  HIS284     -0.2267
    193  CD2       -2.9360   18.7860   24.1370 C.ar  284  HIS284      0.1154
    194  CE1       -1.7480   18.6380   25.9720 C.ar  284  HIS284      0.1986
    195  NE2       -1.8390   18.2090   24.7240 N.ar  284  HIS284     -0.2212
    196  N         -4.2270   24.6190   20.8610 N.3   287  PHE287     -0.1241
    197  CA        -3.9440   23.8200   19.6850 C.3   287  PHE287      0.1605
    198  C         -5.2040   23.1630   19.1020 C.2   287  PHE287      0.2264
    199  O         -5.3280   23.0000   17.8790 O.2   287  PHE287     -0.2867
    200  CB        -2.7790   22.8840   19.9820 C.3   287  PHE287      0.0534
    201  CG        -1.5020   23.6240   20.1870 C.ar  287  PHE287     -0.0203
    202  CD1       -1.0730   24.5470   19.2320 C.ar  287  PHE287     -0.0042
    203  CD2       -0.7480   23.4480   21.3240 C.ar  287  PHE287     -0.0042
    204  CE1        0.0750   25.2650   19.4060 C.ar  287  PHE287     -0.0003
    205  CE2        0.4250   24.1640   21.5060 C.ar  287  PHE287     -0.0003
    206  CZ         0.8350   25.0760   20.5530 C.ar  287  PHE287     -0.0000
    207  N          3.1780   30.7510   12.0650 N.3   307  PHE307     -0.1227
    208  CA         3.4310   31.4570   13.3320 C.3   307  PHE307      0.1736
    209  C          2.4400   31.1980   14.4850 C.2   307  PHE307      0.2595
    210  O          2.6620   31.6700   15.5980 O.2   307  PHE307     -0.2718
    211  CB         3.4830   32.9540   13.0700 C.3   307  PHE307      0.0547
    212  CG         4.6500   33.3820   12.2430 C.ar  307  PHE307     -0.0202
    213  CD1        4.5270   33.5410   10.8930 C.ar  307  PHE307     -0.0042
    214  CD2        5.8790   33.6520   12.8340 C.ar  307  PHE307     -0.0042
    215  CE1        5.6050   33.9580   10.1300 C.ar  307  PHE307     -0.0003
    216  CE2        6.9590   34.0830   12.0680 C.ar  307  PHE307     -0.0003
    217  CZ         6.8240   34.2250   10.7330 C.ar  307  PHE307     -0.0000
    218  N          1.3770   30.4440   14.2220 N.am  308  CYS308     -0.1970
    219  CA         0.3440   30.1640   15.1980 C.3   308  CYS308      0.1712
    220  C         -0.1160   31.4430   15.8890 C.2   308  CYS308      0.2296
    221  O          0.0060   31.6370   17.1270 O.2   308  CYS308     -0.2864
    222  CB         0.7650   29.1020   16.2020 C.3   308  CYS308      0.0983
    223  SG        -0.6970   28.3990   17.0630 S.3   308  CYS308     -0.0798
@<TRIPOS>BOND
     1   215   217   ar
     2   215   213   ar
     3   217   216   ar
     4   213   212   ar
     5   106   105    2
     6   118   117    2
     7   117   116    1
     8   207   208    1
     9   216   214   ar
    10   103   104    1
    11   104   105    1
    12   104   107    1
    13   212   214   ar
    14   212   211    1
    15   105   115   am
    16   164   163    2
    17    97    96    2
    18   109   111   ar
    19   109   108   ar
    20    71    69   ar
    21    71    73   ar
    22    69    68   ar
    23   111   113   ar
    24   211   208    1
    25   115   116    1
    26   163   162    1
    27    96    95    1
    28   116   119    1
    29   160   159   ar
    30   160   158   ar
    31   208   209    1
    32   150   149    2
    33   107   108    1
    34   159   157   ar
    35   108   110   ar
    36    80    81    1
    37   158   156   ar
    38    83    82    2
    39    73    72   ar
    40   113   114    1
    41   113   112   ar
    42    64    67    1
    43    64    63    1
    44    64    65    1
    45    68    67    1
    46    68    70   ar
    47   218   209   am
    48   218   219    1
    49   157   154   ar
    50    82    81    1
    51   119   120    1
    52   209   210    2
    53   149   161   am
    54   149   148    1
    55    66    65    2
    56   138   137    2
    57   162   161    1
    58   162   165    1
    59   110   112   ar
    60   156   154   ar
    61   156   155   ar
    62    95    98    1
    63    95    94    1
    64    81    84    1
    65    98    99    1
    66   154   152   ar
    67    65    74   am
    68   219   220    1
    69   219   222    1
    70    72    70   ar
    71   148   147    1
    72   148   151    1
    73   155   153   ar
    74    94    92   am
    75    93    92    2
    76   165   166    1
    77    92    91    1
    78    90    91    1
    79   137   136    1
    80   220   221    2
    81   152   153   ar
    82   152   151    1
    83    99   100    1
    84    84    85    1
    85   222   223    1
    86    74    75    1
    87   101   100    2
    88   139   136    1
    89   139   140    1
    90    76    77    2
    91    76    75    1
    92   136   135    1
    93    52    53    1
    94   166   168   ar
    95   166   167   ar
    96   171   168   ar
    97   171   173   ar
    98   100   102   am
    99    85    86   ar
   100    85    87   ar
   101    75    78    1
   102   142   140   ar
   103   142   144   ar
   104    86    88   ar
   105    55    54    2
   106   140   141   ar
   107   168   170   ar
   108    53    54    1
   109    53    56    1
   110    51    49   am
   111   173   174   ar
   112   199   198    2
   113    41    40    1
   114   132   131    2
   115    87    89   ar
   116   167   169   ar
   117   144   145   ar
   118   135   131   am
   119    88    89   ar
   120    42    40    1
   121    48    49    1
   122    48    47    1
   123   141   143   ar
   124   131   130    1
   125    78    79    1
   126    49    50    2
   127    12    11    1
   128   170   169   ar
   129   170   172   ar
   130    56    57    1
   131   124   123    2
   132    40    39    1
   133   198   197    1
   134   145   143   ar
   135   145   146    1
   136    57    58    1
   137   202   204   ar
   138   202   201   ar
   139   174   172   ar
   140   204   206   ar
   141    44    47    1
   142    44    43    1
   143    44    45    1
   144    46    45    2
   145   197   200    1
   146   197   196    1
   147   200   201    1
   148    39    36    1
   149   130   129    1
   150   130   133    1
   151   121   122    1
   152    11     9   ar
   153    11    10   ar
   154   201   203   ar
   155   123   122    1
   156     9     7   ar
   157   206   205   ar
   158    58    59    1
   159    38    37    2
   160    36    37    1
   161    36    35    1
   162   122   125    1
   163   133   134    1
   164    10     8   ar
   165    59    60    2
   166   203   205   ar
   167   125   126    1
   168     7     6   ar
   169     8     6   ar
   170   126   127   ar
   171   126   128   ar
   172    60    62    1
   173    60    61    1
   174     6     5    1
   175    34    32    1
   176   189   188    2
   177    30    29    2
   178     4     3    2
   179    27    28    1
   180    28    29    1
   181    28    31    1
   182   185   183   ar
   183   185   184   ar
   184   178   177    2
   185    19    21   ar
   186    19    18   ar
   187   183   181   ar
   188    32    31    1
   189    32    33    1
   190   188   187    1
   191    21    22   ar
   192    16    15    2
   193     5     2    1
   194   184   182   ar
   195   193   195   ar
   196   193   191   ar
   197     3     2    1
   198     3    13   am
   199   187   190    1
   200   187   186    1
   201    14    15    1
   202    14    13    1
   203    14    17    1
   204     2     1    1
   205   195   194   ar
   206   181   180   ar
   207   177   186   am
   208   177   176    1
   209    18    17    1
   210    18    20   ar
   211   190   191    1
   212   182   180   ar
   213   191   192   ar
   214    22    24   ar
   215    22    20   ar
   216   180   179    1
   217    24    26   ar
   218   176   179    1
   219   176   175    1
   220    20    23   ar
   221   194   192   ar
   222    26    25   ar
   223    23    25   ar
