@<TRIPOS>MOLECULE
tmp/3dszB00.pdb
 191 178 0 0 0
SMALL
GASTEIGER

@<TRIPOS>ATOM
      1  N         24.2110   72.3630   48.9820 N.3    28  GLN28      -0.1245
      2  CA        23.9550   72.7590   47.6030 C.3    28  GLN28       0.1566
      3  C         23.4920   71.4960   46.8990 C.2    28  GLN28       0.2260
      4  O         24.3050   70.7780   46.3170 O.2    28  GLN28      -0.2867
      5  CB        25.2210   73.2980   46.9330 C.3    28  GLN28       0.0367
      6  CG        24.9870   73.6780   45.4710 C.3    28  GLN28       0.0905
      7  CD        26.2180   74.2550   44.8100 C.2    28  GLN28       0.2608
      8  OE1       27.2370   73.5750   44.6840 O.2    28  GLN28      -0.2717
      9  NE2       26.1360   75.5130   44.3910 N.am   28  GLN28      -0.0878
     10  N         22.6830   72.7610   41.1800 N.3    31  ARG31      -0.1245
     11  CA        23.2950   73.9940   40.6790 C.3    31  ARG31       0.1563
     12  C         23.2980   73.9780   39.1630 C.2    31  ARG31       0.2260
     13  O         23.3370   72.9140   38.5360 O.2    31  ARG31      -0.2867
     14  CB        24.7280   74.1710   41.1960 C.3    31  ARG31       0.0307
     15  CG        25.6870   73.0540   40.8240 C.3    31  ARG31       0.0489
     16  CD        27.1040   73.3620   41.3110 C.3    31  ARG31       0.2205
     17  NE        28.0670   72.3730   40.8360 N.pl3  31  ARG31      -0.0865
     18  CZ        28.9050   71.7080   41.6240 C.cat  31  ARG31       0.5346
     19  NH1       28.9030   71.9250   42.9320 N.pl3  31  ARG31       0.1354
     20  NH2       29.7400   70.8230   41.1030 N.pl3  31  ARG31       0.1354
     21  N         28.4230   70.0390   48.1930 N.3    47  THR47      -0.1218
     22  CA        29.0860   70.9950   49.0740 C.3    47  THR47       0.1862
     23  C         28.0760   71.4560   50.1260 C.2    47  THR47       0.2287
     24  O         26.8680   71.2460   49.9810 O.2    47  THR47      -0.2866
     25  CB        29.5590   72.2570   48.3140 C.3    47  THR47       0.1770
     26  OG1       28.4330   72.8900   47.6960 O.3    47  THR47      -0.2211
     27  CG2       30.5930   71.8970   47.2480 C.3    47  THR47       0.0375
     28  N         27.1520   74.8700   52.8330 N.3    49  GLN49      -0.1245
     29  CA        27.3200   76.3020   53.0160 C.3    49  GLN49       0.1566
     30  C         26.7270   76.7290   54.3460 C.2    49  GLN49       0.2260
     31  O         25.7270   76.1640   54.7850 O.2    49  GLN49      -0.2867
     32  CB        26.5540   77.0560   51.9260 C.3    49  GLN49       0.0367
     33  CG        26.8880   76.6490   50.5040 C.3    49  GLN49       0.0905
     34  CD        26.0390   77.3810   49.4800 C.2    49  GLN49       0.2608
     35  OE1       25.2200   78.2280   49.8300 O.2    49  GLN49      -0.2717
     36  NE2       26.2320   77.0550   48.2110 N.am   49  GLN49      -0.0878
     37  N         25.4100   80.2380   56.1530 N.3    51  TYR51      -0.1241
     38  CA        25.1220   81.6530   56.0300 C.3    51  TYR51       0.1605
     39  C         25.1090   82.1760   57.4620 C.2    51  TYR51       0.2264
     40  O         24.1360   81.9930   58.1950 O.2    51  TYR51      -0.2867
     41  CB        23.7560   81.8630   55.3730 C.3    51  TYR51       0.0534
     42  CG        23.7890   81.8790   53.8520 C.ar   51  TYR51      -0.0201
     43  CD1       23.5850   83.0640   53.1560 C.ar   51  TYR51      -0.0009
     44  CD2       24.0230   80.7150   53.1150 C.ar   51  TYR51      -0.0009
     45  CE1       23.5990   83.1000   51.7650 C.ar   51  TYR51       0.0417
     46  CE2       24.0420   80.7370   51.7100 C.ar   51  TYR51       0.0417
     47  CZ        23.8290   81.9380   51.0480 C.ar   51  TYR51       0.1957
     48  OH        23.8450   81.9940   49.6730 O.3    51  TYR51      -0.2866
     49  N         29.4790   84.0390   54.4280 N.3    61  VAL61      -0.1245
     50  CA        29.0780   82.7610   53.8540 C.3    61  VAL61       0.1561
     51  C         30.2720   81.8320   53.6110 C.2    61  VAL61       0.2260
     52  O         31.1340   82.1030   52.7730 O.2    61  VAL61      -0.2867
     53  CB        28.3060   82.9720   52.5140 C.3    61  VAL61       0.0252
     54  CG1       27.7580   81.6320   52.0060 C.3    61  VAL61       0.0019
     55  CG2       27.1630   83.9690   52.7100 C.3    61  VAL61       0.0019
     56  N         31.7040   78.1240   52.4460 N.3    63  ALA63      -0.1245
     57  CA        31.3790   76.9350   51.6660 C.3    63  ALA63       0.1562
     58  C         32.5230   75.9440   51.8080 C.2    63  ALA63       0.2260
     59  O         33.6850   76.3340   51.9140 O.2    63  ALA63      -0.2867
     60  CB        31.1820   77.2940   50.1810 C.3    63  ALA63       0.0290
     61  N         34.1090   72.1330   50.2530 N.3    65  ARG65      -0.1245
     62  CA        34.0270   71.0630   49.2700 C.3    65  ARG65       0.1563
     63  C         35.1000   70.0470   49.6260 C.2    65  ARG65       0.2260
     64  O         36.1030   70.3790   50.2590 O.2    65  ARG65      -0.2867
     65  CB        34.2470   71.5770   47.8350 C.3    65  ARG65       0.0307
     66  CG        35.6650   72.0520   47.5180 C.3    65  ARG65       0.0489
     67  CD        35.7850   72.5700   46.0810 C.3    65  ARG65       0.2205
     68  NE        37.0790   73.2160   45.8650 N.pl3  65  ARG65      -0.0865
     69  CZ        37.4850   73.7150   44.7030 C.cat  65  ARG65       0.5346
     70  NH1       36.6950   73.6450   43.6390 N.pl3  65  ARG65       0.1354
     71  NH2       38.6810   74.2770   44.6040 N.pl3  65  ARG65       0.1354
     72  N         37.8290   68.0350   48.1670 N.3    67  ARG67      -0.1231
     73  CA        38.6100   67.9890   46.9390 C.3    67  ARG67       0.1694
     74  C         40.0630   67.6350   47.1990 C.2    67  ARG67       0.2591
     75  O         40.6790   68.1540   48.1260 O.2    67  ARG67      -0.2718
     76  CB        38.5190   69.3480   46.2290 C.3    67  ARG67       0.0321
     77  CG        39.1160   69.3750   44.8270 C.3    67  ARG67       0.0489
     78  CD        38.8050   70.6920   44.1180 C.3    67  ARG67       0.2205
     79  NE        39.3490   70.7300   42.7600 N.pl3  67  ARG67      -0.0865
     80  CZ        40.5320   71.2430   42.4310 C.cat  67  ARG67       0.5346
     81  NH1       41.3130   71.7740   43.3630 N.pl3  67  ARG67       0.1354
     82  NH2       40.9410   71.2190   41.1670 N.pl3  67  ARG67       0.1354
     83  N         40.6050   66.7590   46.3560 N.am   68  LYS68      -0.1980
     84  CA        41.9870   66.3000   46.4850 C.3    68  LYS68       0.1596
     85  C         42.2370   65.7650   47.8910 C.2    68  LYS68       0.2287
     86  O         43.2340   66.1020   48.5320 O.2    68  LYS68      -0.2864
     87  CB        42.9750   67.4300   46.1660 C.3    68  LYS68       0.0298
     88  CG        42.8930   67.9340   44.7340 C.3    68  LYS68       0.0038
     89  CD        43.9170   69.0240   44.4530 C.3    68  LYS68       0.0206
     90  CE        43.7730   70.1830   45.4260 C.3    68  LYS68       0.1093
     91  NZ        44.5020   71.3950   44.9580 N.3    68  LYS68      -0.1314
     92  N         38.1860   71.7490   51.5910 N.3    72  ASP72      -0.1225
     93  CA        38.5760   73.0220   50.9900 C.3    72  ASP72       0.1805
     94  C         37.5060   74.0860   51.2840 C.2    72  ASP72       0.2598
     95  O         36.4130   74.0650   50.7080 O.2    72  ASP72      -0.2718
     96  CB        38.7370   72.7440   49.4900 C.3    72  ASP72       0.1424
     97  CG        39.1550   73.9530   48.6830 C.2    72  ASP72       0.3668
     98  OD1       39.3330   73.7700   47.4630 O.co2  72  ASP72      -0.2456
     99  OD2       39.3010   75.0630   49.2350 O.co2  72  ASP72      -0.2456
    100  N         37.8330   75.0060   52.1900 N.am   73  TYR73      -0.1962
    101  CA        36.9180   76.0690   52.6200 C.3    73  TYR73       0.1771
    102  C         37.1210   77.4070   51.9000 C.2    73  TYR73       0.2619
    103  O         38.2270   77.7370   51.4740 O.2    73  TYR73      -0.2715
    104  CB        37.0780   76.3110   54.1300 C.3    73  TYR73       0.0574
    105  CG        36.7510   75.1250   55.0150 C.ar   73  TYR73      -0.0198
    106  CD1       35.4750   74.9580   55.5530 C.ar   73  TYR73      -0.0009
    107  CD2       37.7190   74.1680   55.3100 C.ar   73  TYR73      -0.0009
    108  CE1       35.1740   73.8600   56.3760 C.ar   73  TYR73       0.0417
    109  CE2       37.4330   73.0730   56.1210 C.ar   73  TYR73       0.0417
    110  CZ        36.1620   72.9250   56.6470 C.ar   73  TYR73       0.1957
    111  OH        35.8950   71.8440   57.4510 O.3    73  TYR73      -0.2866
    112  N         36.0380   78.1680   51.7700 N.am   74  LEU74      -0.1977
    113  CA        36.0800   79.4890   51.1420 C.3    74  LEU74       0.1596
    114  C         34.9920   80.3020   51.8310 C.2    74  LEU74       0.2287
    115  O         33.8770   79.8160   52.0050 O.2    74  LEU74      -0.2864
    116  CB        35.7910   79.3960   49.6380 C.3    74  LEU74       0.0297
    117  CG        35.9270   80.6700   48.7900 C.3    74  LEU74       0.0022
    118  CD1       37.3640   81.1670   48.8190 C.3    74  LEU74       0.0001
    119  CD2       35.5160   80.3690   47.3510 C.3    74  LEU74       0.0001
    120  N         33.0580   84.1550   51.8600 N.3    76  MET76      -0.1245
    121  CA        32.8260   85.4200   51.1660 C.3    76  MET76       0.1570
    122  C         31.7590   86.1700   51.9690 C.2    76  MET76       0.2261
    123  O         30.9150   85.5430   52.6140 O.2    76  MET76      -0.2867
    124  CB        32.3410   85.1660   49.7310 C.3    76  MET76       0.0387
    125  CG        33.3900   84.5010   48.8400 C.3    76  MET76       0.0595
    126  SD        32.7520   84.0380   47.2250 S.3    76  MET76      -0.1393
    127  CE        32.7840   85.6070   46.3660 C.3    76  MET76       0.0692
    128  N         28.5170   88.6890   52.1300 N.3    78  PHE78      -0.1241
    129  CA        27.3820   89.2210   51.3740 C.3    78  PHE78       0.1605
    130  C         26.7960   90.4020   52.1570 C.2    78  PHE78       0.2264
    131  O         26.3780   90.2490   53.3080 O.2    78  PHE78      -0.2867
    132  CB        26.2930   88.1460   51.1830 C.3    78  PHE78       0.0534
    133  CG        26.6580   87.0270   50.2100 C.ar   78  PHE78      -0.0203
    134  CD1       25.7750   85.9630   50.0080 C.ar   78  PHE78      -0.0042
    135  CD2       27.8710   87.0190   49.5200 C.ar   78  PHE78      -0.0042
    136  CE1       26.0950   84.9080   49.1460 C.ar   78  PHE78      -0.0003
    137  CE2       28.1970   85.9680   48.6500 C.ar   78  PHE78      -0.0003
    138  CZ        27.3090   84.9120   48.4670 C.ar   78  PHE78      -0.0000
    139  N         29.3240   91.7940   41.2910 N.3   101  TYR101     -0.1241
    140  CA        28.8490   90.5760   41.9340 C.3   101  TYR101      0.1605
    141  C         27.4910   90.8880   42.5310 C.2   101  TYR101      0.2264
    142  O         27.3170   91.8760   43.2550 O.2   101  TYR101     -0.2867
    143  CB        29.8380   90.1490   43.0310 C.3   101  TYR101      0.0534
    144  CG        29.5740   88.7830   43.6420 C.ar  101  TYR101     -0.0201
    145  CD1       28.6550   88.6170   44.6820 C.ar  101  TYR101     -0.0009
    146  CD2       30.2390   87.6530   43.1690 C.ar  101  TYR101     -0.0009
    147  CE1       28.4100   87.3430   45.2360 C.ar  101  TYR101      0.0417
    148  CE2       29.9990   86.3870   43.7090 C.ar  101  TYR101      0.0417
    149  CZ        29.0890   86.2370   44.7360 C.ar  101  TYR101      0.1957
    150  OH        28.8630   84.9700   45.2390 O.3   101  TYR101     -0.2866
    151  N         22.9810   84.0370   41.1640 N.3   118  PHE118     -0.1241
    152  CA        24.2520   84.7530   41.2300 C.3   118  PHE118      0.1605
    153  C         24.6640   85.2740   39.8650 C.2   118  PHE118      0.2264
    154  O         24.5200   84.5690   38.8680 O.2   118  PHE118     -0.2867
    155  CB        25.3640   83.8120   41.6970 C.3   118  PHE118      0.0534
    156  CG        25.1640   83.2800   43.0800 C.ar  118  PHE118     -0.0203
    157  CD1       25.6240   83.9910   44.1840 C.ar  118  PHE118     -0.0042
    158  CD2       24.4730   82.0900   43.2830 C.ar  118  PHE118     -0.0042
    159  CE1       25.3940   83.5250   45.4850 C.ar  118  PHE118     -0.0003
    160  CE2       24.2340   81.6100   44.5780 C.ar  118  PHE118     -0.0003
    161  CZ        24.6960   82.3360   45.6820 C.ar  118  PHE118     -0.0000
    162  N         28.0160   87.6110   38.1590 N.3   120  LYS120     -0.1245
    163  CA        29.2630   88.3340   38.3810 C.3   120  LYS120      0.1561
    164  C         30.0500   88.5430   37.0930 C.2   120  LYS120      0.2260
    165  O         29.8480   87.8480   36.0960 O.2   120  LYS120     -0.2867
    166  CB        30.1520   87.5830   39.3810 C.3   120  LYS120      0.0271
    167  CG        30.5530   86.1940   38.9140 C.3   120  LYS120      0.0035
    168  CD        31.7620   85.6340   39.6590 C.3   120  LYS120      0.0206
    169  CE        32.1500   84.2850   39.0610 C.3   120  LYS120      0.1093
    170  NZ        33.0940   83.5080   39.9120 N.3   120  LYS120     -0.1314
    171  N         24.6870   81.9170   37.7150 N.3   129  SER129     -0.1217
    172  CA        24.3770   80.5800   38.1770 C.3   129  SER129      0.1889
    173  C         23.1730   80.6210   39.1100 C.2   129  SER129      0.2288
    174  O         22.7700   81.6860   39.5870 O.2   129  SER129     -0.2866
    175  CB        25.5750   79.9800   38.9270 C.3   129  SER129      0.2089
    176  OG        25.7340   80.5810   40.2020 O.3   129  SER129     -0.2183
    177  N         21.4440   78.2440   42.4160 N.3   131  THR131     -0.1218
    178  CA        21.6500   77.1380   43.3350 C.3   131  THR131      0.1862
    179  C         20.3450   76.7280   43.9810 C.2   131  THR131      0.2287
    180  O         19.5060   77.5720   44.3060 O.2   131  THR131     -0.2866
    181  CB        22.6270   77.4920   44.4890 C.3   131  THR131      0.1770
    182  OG1       23.9660   77.5630   43.9870 O.3   131  THR131     -0.2211
    183  CG2       22.5630   76.4300   45.5880 C.3   131  THR131      0.0375
    184  N         19.2390   75.0850   47.2490 N.3   133  LEU133     -0.1245
    185  CA        19.7330   74.7530   48.5720 C.3   133  LEU133      0.1561
    186  C         18.7220   73.9080   49.3270 C.2   133  LEU133      0.2260
    187  O         17.5160   74.0370   49.1280 O.2   133  LEU133     -0.2867
    188  CB        19.9730   76.0290   49.3890 C.3   133  LEU133      0.0270
    189  CG        21.0180   77.0410   48.9310 C.3   133  LEU133      0.0019
    190  CD1       21.0040   78.2510   49.8660 C.3   133  LEU133      0.0001
    191  CD2       22.3800   76.3840   48.9220 C.3   133  LEU133      0.0001
@<TRIPOS>BOND
     1   165   164    2
     2   164   163    1
     3   171   172    1
     4   162   163    1
     5   172   175    1
     6   172   173    1
     7   163   166    1
     8    13    12    2
     9   154   153    2
    10   167   166    1
    11   167   168    1
    12   175   176    1
    13   169   168    1
    14   169   170    1
    15   173   174    2
    16    12    11    1
    17   153   152    1
    18    11    10    1
    19    11    14    1
    20    15    14    1
    21    15    16    1
    22    17    16    1
    23    17    18    2
    24    20    18    1
    25   151   152    1
    26    82    80    1
    27   152   155    1
    28   139   140    1
    29    18    19    1
    30   155   156    1
    31   140   141    1
    32   140   143    1
    33   177   178    1
    34    80    79    2
    35    80    81    1
    36   141   142    2
    37    79    78    1
    38   143   144    1
    39   156   158   ar
    40   156   157   ar
    41   146   144   ar
    42   146   148   ar
    43   158   160   ar
    44   178   179    1
    45   178   181    1
    46    70    69    1
    47   144   145   ar
    48   148   149   ar
    49   179   180    2
    50   182   181    1
    51    78    77    1
    52   157   159   ar
    53     9     7   am
    54    89    88    1
    55    89    90    1
    56   181   183    1
    57   160   161   ar
    58    71    69    1
    59   145   147   ar
    60     8     7    2
    61    69    68    2
    62    88    87    1
    63   149   147   ar
    64   149   150    1
    65     7     6    1
    66    77    76    1
    67    91    90    1
    68     6     5    1
    69   159   161   ar
    70    68    67    1
    71    67    66    1
    72    87    84    1
    73    76    73    1
    74     4     3    2
    75    83    84    1
    76    83    74   am
    77   127   126    1
    78    84    85    1
    79     3     2    1
    80     5     2    1
    81    73    74    1
    82    73    72    1
    83    74    75    2
    84   126   125    1
    85    27    25    1
    86   184   185    1
    87   119   117    1
    88    98    97   ar
    89    66    65    1
    90     2     1    1
    91    26    25    1
    92    65    62    1
    93    85    86    2
    94    21    22    1
    95    36    34   am
    96    25    22    1
    97   138   137   ar
    98   138   136   ar
    99   185   186    1
   100   185   188    1
   101   137   135   ar
   102    97    99   ar
   103    97    96    1
   104   117   118    1
   105   117   116    1
   106   125   124    1
   107   191   189    1
   108   189   188    1
   109   189   190    1
   110    22    23    1
   111   187   186    2
   112   136   134   ar
   113    62    63    1
   114    62    61    1
   115    34    35    2
   116    34    33    1
   117    96    93    1
   118   135   133   ar
   119    63    64    2
   120   116   113    1
   121    48    47    1
   122   124   121    1
   123    24    23    2
   124   134   133   ar
   125    60    57    1
   126   133   132    1
   127    33    32    1
   128    95    94    2
   129    93    94    1
   130    93    92    1
   131    47    46   ar
   132    47    45   ar
   133   113   112    1
   134   113   114    1
   135   121   120    1
   136   121   122    1
   137   132   129    1
   138    94   100   am
   139   129   128    1
   140   129   130    1
   141   103   102    2
   142    57    58    1
   143    57    56    1
   144    46    44   ar
   145    45    43   ar
   146   112   102   am
   147    58    59    2
   148   114   115    2
   149   102   101    1
   150    32    29    1
   151   122   123    2
   152    54    53    1
   153   130   131    2
   154   100   101    1
   155    53    55    1
   156    53    50    1
   157   101   104    1
   158    52    51    2
   159    28    29    1
   160    29    30    1
   161    44    42   ar
   162    43    42   ar
   163    51    50    1
   164    42    41    1
   165    50    49    1
   166   104   105    1
   167    30    31    2
   168   105   107   ar
   169   105   106   ar
   170   107   109   ar
   171    41    38    1
   172   106   108   ar
   173    38    37    1
   174    38    39    1
   175   109   110   ar
   176   108   110   ar
   177   110   111    1
   178    39    40    2
