@<TRIPOS>MOLECULE
tmp/3dt1A00.pdb
 186 176 0 0 0
SMALL
GASTEIGER

@<TRIPOS>ATOM
      1  N         23.8760    9.6260   38.4460 N.3    34  VAL34      -0.1245
      2  CA        24.9610    9.6090   37.4640 C.3    34  VAL34       0.1561
      3  C         25.3320   11.0120   37.0240 C.2    34  VAL34       0.2260
      4  O         26.3230   11.1910   36.3230 O.2    34  VAL34      -0.2867
      5  CB        24.6130    8.8020   36.1850 C.3    34  VAL34       0.0252
      6  CG1       24.8730    7.3300   36.4110 C.3    34  VAL34       0.0019
      7  CG2       23.1700    9.0350   35.7920 C.3    34  VAL34       0.0019
      8  N         19.2590   21.8890   34.4960 N.3    39  TYR39      -0.1241
      9  CA        18.0210   21.4310   33.8670 C.3    39  TYR39       0.1605
     10  C         17.3370   20.2960   34.6630 C.2    39  TYR39       0.2264
     11  O         16.1240   20.1010   34.5680 O.2    39  TYR39      -0.2867
     12  CB        18.3370   20.9570   32.4360 C.3    39  TYR39       0.0534
     13  CG        19.3550   19.8190   32.3820 C.ar   39  TYR39      -0.0201
     14  CD1       19.0020   18.5210   32.7480 C.ar   39  TYR39      -0.0009
     15  CD2       20.6770   20.0590   32.0310 C.ar   39  TYR39      -0.0009
     16  CE1       19.9320   17.5020   32.7700 C.ar   39  TYR39       0.0417
     17  CE2       21.6120   19.0440   32.0480 C.ar   39  TYR39       0.0417
     18  CZ        21.2380   17.7640   32.4250 C.ar   39  TYR39       0.1957
     19  OH        22.1700   16.7410   32.4700 O.3    39  TYR39      -0.2866
     20  N         20.0140   13.2710   36.8490 N.3    42  VAL42      -0.1245
     21  CA        19.8930   12.0170   36.1150 C.3    42  VAL42       0.1561
     22  C         20.2740   10.8080   36.9650 C.2    42  VAL42       0.2260
     23  O         21.2020   10.8670   37.7750 O.2    42  VAL42      -0.2867
     24  CB        20.7720   12.0480   34.8580 C.3    42  VAL42       0.0252
     25  CG1       20.7760   10.7110   34.1810 C.3    42  VAL42       0.0019
     26  CG2       20.2470   13.1050   33.9140 C.3    42  VAL42       0.0019
     27  N         18.1240    5.2460   31.6260 N.3    55  ALA55      -0.1231
     28  CA        18.5450    6.5190   32.2000 C.3    55  ALA55       0.1694
     29  C         17.2700    7.3360   32.4670 C.2    55  ALA55       0.2592
     30  O         16.4260    7.4960   31.5750 O.2    55  ALA55      -0.2718
     31  CB        19.4650    7.2640   31.2360 C.3    55  ALA55       0.0304
     32  N         17.1260    7.8240   33.7000 N.am   56  VAL56      -0.1966
     33  CA        15.9670    8.6220   34.0820 C.3    56  VAL56       0.1727
     34  C         16.3470   10.0460   34.4690 C.2    56  VAL56       0.2616
     35  O         17.2120   10.2580   35.3170 O.2    56  VAL56      -0.2715
     36  CB        15.2300    8.0140   35.2680 C.3    56  VAL56       0.0290
     37  CG1       14.0660    8.8940   35.6440 C.3    56  VAL56       0.0023
     38  CG2       14.7680    6.6160   34.9350 C.3    56  VAL56       0.0023
     39  N         15.7040   11.0260   33.8420 N.am   57  LYS57      -0.1977
     40  CA        15.9830   12.4150   34.1510 C.3    57  LYS57       0.1596
     41  C         14.7910   13.0430   34.8430 C.2    57  LYS57       0.2287
     42  O         13.6530   12.9500   34.3730 O.2    57  LYS57      -0.2864
     43  CB        16.3110   13.2020   32.8800 C.3    57  LYS57       0.0298
     44  CG        16.2020   14.7000   33.0350 C.3    57  LYS57       0.0038
     45  CD        17.2600   15.4610   32.2340 C.3    57  LYS57       0.0206
     46  CE        17.0640   15.3690   30.7280 C.3    57  LYS57       0.1093
     47  NZ        17.9840   16.3060   30.0120 N.3    57  LYS57      -0.1314
     48  N         11.3160   19.9660   25.3320 N.3    75  GLU75      -0.1245
     49  CA        12.0850   18.7440   25.4580 C.3    75  GLU75       0.1567
     50  C         11.1900   17.5230   25.3050 C.2    75  GLU75       0.2260
     51  O         11.5430   16.5720   24.6110 O.2    75  GLU75      -0.2867
     52  CB        12.8070   18.7080   26.7920 C.3    75  GLU75       0.0388
     53  CG        14.0610   17.9110   26.7630 C.3    75  GLU75       0.1160
     54  CD        14.7170   17.8470   28.1260 C.2    75  GLU75       0.3649
     55  OE1       14.4400   18.7500   28.9600 O.co2  75  GLU75      -0.2457
     56  OE2       15.5150   16.9000   28.3510 O.co2  75  GLU75      -0.2457
     57  N         10.4830   17.0460   21.6200 N.3    78  LEU78      -0.1231
     58  CA        11.6460   16.5250   20.9030 C.3    78  LEU78       0.1693
     59  C         11.8250   15.0330   21.1340 C.2    78  LEU78       0.2591
     60  O         11.9810   14.2710   20.1830 O.2    78  LEU78      -0.2718
     61  CB        12.9170   17.2690   21.3220 C.3    78  LEU78       0.0284
     62  CG        13.0200   18.7110   20.8200 C.3    78  LEU78       0.0019
     63  CD1       14.0810   19.4890   21.5780 C.3    78  LEU78       0.0001
     64  CD2       13.3070   18.6750   19.3160 C.3    78  LEU78       0.0001
     65  N         11.8050   14.6110   22.3940 N.am   79  LEU79      -0.1980
     66  CA        11.9800   13.1970   22.7120 C.3    79  LEU79       0.1596
     67  C         10.8660   12.3390   22.1180 C.2    79  LEU79       0.2287
     68  O         11.1180   11.2640   21.5780 O.2    79  LEU79      -0.2864
     69  CB        12.0460   12.9970   24.2290 C.3    79  LEU79       0.0297
     70  CG        13.2670   13.6270   24.8870 C.3    79  LEU79       0.0022
     71  CD1       13.1870   13.4820   26.3950 C.3    79  LEU79       0.0001
     72  CD2       14.5060   12.9570   24.3400 C.3    79  LEU79       0.0001
     73  N         18.9350    9.6640   20.7920 N.3    88  ILE88      -0.1245
     74  CA        18.3230    9.3610   22.0820 C.3    88  ILE88       0.1561
     75  C         16.7950    9.5160   21.9320 C.2    88  ILE88       0.2260
     76  O         16.3050   10.5310   21.4200 O.2    88  ILE88      -0.2867
     77  CB        18.8830   10.3100   23.1770 C.3    88  ILE88       0.0252
     78  CG1       18.5510    9.7810   24.5660 C.3    88  ILE88       0.0019
     79  CG2       18.3290   11.6870   23.0150 C.3    88  ILE88       0.0019
     80  CD1       19.2780    8.4790   24.9320 C.3    88  ILE88       0.0001
     81  N         11.7500   11.8450   32.6070 N.3   108  LEU108     -0.1245
     82  CA        11.9230   11.3460   31.2320 C.3   108  LEU108      0.1561
     83  C         12.8250   10.1140   31.2430 C.2   108  LEU108      0.2260
     84  O         13.9720   10.2090   31.6530 O.2   108  LEU108     -0.2867
     85  CB        12.5620   12.4350   30.3600 C.3   108  LEU108      0.0270
     86  CG        11.8520   13.7940   30.4320 C.3   108  LEU108      0.0019
     87  CD1       12.6330   14.8740   29.7270 C.3   108  LEU108      0.0001
     88  CD2       10.4800   13.6510   29.8120 C.3   108  LEU108      0.0001
     89  N         14.9610    7.1350   29.3470 N.3   110  THR110     -0.1203
     90  CA        15.6150    6.9100   28.0680 C.3   110  THR110      0.1994
     91  C         16.5490    5.7010   28.1740 C.2   110  THR110      0.2618
     92  O         16.6570    5.0950   29.2450 O.2   110  THR110     -0.2717
     93  CB        16.4390    8.1650   27.7050 C.3   110  THR110      0.1784
     94  OG1       16.7440    8.1730   26.3130 O.3   110  THR110     -0.2211
     95  CG2       17.7300    8.1630   28.4590 C.3   110  THR110      0.0376
     96  N         17.2010    5.3310   27.0710 N.am  111  HIS111     -0.1961
     97  CA        18.1650    4.2460   27.1320 C.3   111  HIS111      0.1787
     98  C         19.3630    4.7290   27.9280 C.2   111  HIS111      0.2620
     99  O         19.5370    5.9300   28.1310 O.2   111  HIS111     -0.2715
    100  CB        18.6360    3.8570   25.7550 C.3   111  HIS111      0.0785
    101  CG        17.8520    2.7410   25.1580 C.ar  111  HIS111      0.0821
    102  ND1       17.0720    2.8950   24.0300 N.ar  111  HIS111     -0.2267
    103  CD2       17.7030    1.4560   25.5500 C.ar  111  HIS111      0.1154
    104  CE1       16.4730    1.7520   23.7550 C.ar  111  HIS111      0.1986
    105  NE2       16.8380    0.8620   24.6630 N.ar  111  HIS111     -0.2212
    106  N         20.1870    3.7960   28.3850 N.am  112  LEU112     -0.1963
    107  CA        21.3820    4.1460   29.1480 C.3   112  LEU112      0.1728
    108  C         22.6080    3.7380   28.3350 C.2   112  LEU112      0.2616
    109  O         22.6450    2.6480   27.7740 O.2   112  LEU112     -0.2715
    110  CB        21.3790    3.4260   30.4960 C.3   112  LEU112      0.0311
    111  CG        22.5600    3.6190   31.4450 C.3   112  LEU112      0.0022
    112  CD1       22.7370    5.0650   31.7830 C.3   112  LEU112      0.0001
    113  CD2       22.3080    2.8040   32.7000 C.3   112  LEU112      0.0001
    114  N         23.5940    4.6240   28.2560 N.am  113  MET113     -0.1963
    115  CA        24.8150    4.3410   27.5110 C.3   113  MET113      0.1736
    116  C         25.9980    4.3480   28.4660 C.2   113  MET113      0.2617
    117  O         26.0650    5.1570   29.3860 O.2   113  MET113     -0.2715
    118  CB        25.0460    5.3920   26.4260 C.3   113  MET113      0.0427
    119  CG        23.8150    5.7010   25.5980 C.3   113  MET113      0.0599
    120  SD        23.0580    4.2250   24.9260 S.3   113  MET113     -0.1393
    121  CE        24.0560    3.9630   23.5130 C.3   113  MET113      0.0692
    122  N         26.9400    3.4460   28.2340 N.am  114  GLY114     -0.1940
    123  CA        28.0990    3.3610   29.0940 C.3   114  GLY114      0.2014
    124  C         28.8550    4.6490   29.3280 C.2   114  GLY114      0.2639
    125  O         29.2750    4.9100   30.4500 O.2   114  GLY114     -0.2714
    126  N         29.0340    5.4600   28.2940 N.am  115  ALA115     -0.1963
    127  CA        29.7870    6.6980   28.4500 C.3   115  ALA115      0.1728
    128  C         29.5450    7.7130   27.3420 C.2   115  ALA115      0.2616
    129  O         28.7680    7.4770   26.4090 O.2   115  ALA115     -0.2715
    130  CB        31.2620    6.3840   28.5120 C.3   115  ALA115      0.0334
    131  N         30.2100    8.8570   27.4490 N.am  116  ASP116     -0.1971
    132  CA        30.0730    9.8810   26.4300 C.3   116  ASP116      0.1709
    133  C         31.3980    9.8490   25.6690 C.2   116  ASP116      0.2293
    134  O         32.3470    9.2250   26.1310 O.2   116  ASP116     -0.2864
    135  CB        29.7740   11.2470   27.0730 C.3   116  ASP116      0.1436
    136  CG        30.9630   11.8390   27.8010 C.2   116  ASP116      0.3671
    137  OD1       30.7680   12.8540   28.5080 O.co2 116  ASP116     -0.2456
    138  OD2       32.0870   11.3090   27.6610 O.co2 116  ASP116     -0.2456
    139  N         35.1430   10.4830   27.7030 N.3   119  ASN119     -0.1240
    140  CA        35.6280    9.3340   28.4520 C.3   119  ASN119      0.1653
    141  C         36.3490    8.2910   27.5870 C.2   119  ASN119      0.2266
    142  O         37.4520    7.8560   27.9070 O.2   119  ASN119     -0.2867
    143  CB        34.4360    8.6990   29.1770 C.3   119  ASN119      0.1155
    144  CG        33.4800    9.7480   29.7940 C.2   119  ASN119      0.2627
    145  OD1       32.2670    9.5080   29.8860 O.2   119  ASN119     -0.2716
    146  ND2       34.0200   10.8970   30.2290 N.am  119  ASN119     -0.0877
    147  N         26.8140    9.8030   23.1660 N.3   161  ALA161     -0.1245
    148  CA        26.9590    8.6860   24.0980 C.3   161  ALA161      0.1562
    149  C         27.2130    7.3910   23.3410 C.2   161  ALA161      0.2260
    150  O         26.5740    7.1170   22.3250 O.2   161  ALA161     -0.2867
    151  CB        25.7120    8.5370   24.9400 C.3   161  ALA161      0.0290
    152  N         22.6030   13.1230   22.0040 N.3   171  LEU171     -0.1231
    153  CA        21.7920   13.7200   23.0620 C.3   171  LEU171      0.1693
    154  C         21.6440   15.2400   22.9290 C.2   171  LEU171      0.2592
    155  O         22.3170   15.8900   22.1390 O.2   171  LEU171     -0.2718
    156  CB        22.4070   13.4480   24.4290 C.3   171  LEU171      0.0284
    157  CG        22.8830   12.0520   24.7880 C.3   171  LEU171      0.0019
    158  CD1       23.1840   12.0510   26.2700 C.3   171  LEU171      0.0001
    159  CD2       21.8300   11.0260   24.4690 C.3   171  LEU171      0.0001
    160  N         20.7550   15.8010   23.7340 N.am  172  ASP172     -0.1960
    161  CA        20.5160   17.2390   23.7730 C.3   172  ASP172      0.1840
    162  C         20.5110   17.9890   22.4660 C.2   172  ASP172      0.2622
    163  O         21.3040   18.9000   22.2890 O.2   172  ASP172     -0.2715
    164  CB        21.5430   17.9010   24.6730 C.3   172  ASP172      0.1450
    165  CG        21.4310   17.4440   26.0940 C.2   172  ASP172      0.3671
    166  OD1       20.3560   17.6620   26.7030 O.co2 172  ASP172     -0.2456
    167  OD2       22.4160   16.8530   26.5900 O.co2 172  ASP172     -0.2456
    168  N         19.6190   17.6330   21.5570 N.am  173  PHE173     -0.1974
    169  CA        19.5340   18.3200   20.2840 C.3   173  PHE173      0.1639
    170  C         18.3660   19.3060   20.3320 C.2   173  PHE173      0.2290
    171  O         17.4240   19.1350   21.1040 O.2   173  PHE173     -0.2864
    172  CB        19.3440   17.2960   19.1740 C.3   173  PHE173      0.0560
    173  CG        18.3650   16.2280   19.5180 C.ar  173  PHE173     -0.0200
    174  CD1       17.0100   16.5150   19.6060 C.ar  173  PHE173     -0.0042
    175  CD2       18.7980   14.9520   19.8320 C.ar  173  PHE173     -0.0042
    176  CE1       16.0980   15.5480   20.0130 C.ar  173  PHE173     -0.0003
    177  CE2       17.9050   13.9820   20.2370 C.ar  173  PHE173     -0.0003
    178  CZ        16.5510   14.2760   20.3300 C.ar  173  PHE173     -0.0000
    179  N         17.9590   22.0900   21.7420 N.3   175  LEU175     -0.1245
    180  CA        17.6840   22.7890   22.9850 C.3   175  LEU175      0.1561
    181  C         18.2180   24.2210   23.0250 C.2   175  LEU175      0.2260
    182  O         17.5560   25.1160   23.5690 O.2   175  LEU175     -0.2867
    183  CB        18.2140   21.9730   24.1580 C.3   175  LEU175      0.0270
    184  CG        17.3210   20.7560   24.3840 C.3   175  LEU175      0.0019
    185  CD1       17.7010   20.0590   25.6580 C.3   175  LEU175      0.0001
    186  CD2       15.8830   21.2060   24.4640 C.3   175  LEU175      0.0001
@<TRIPOS>BOND
     1   172   173    1
     2   172   169    1
     3    64    62    1
     4   173   174   ar
     5   173   175   ar
     6   174   176   ar
     7   175   177   ar
     8   176   178   ar
     9    60    59    2
    10   177   178   ar
    11   169   170    1
    12   169   168    1
    13   170   171    2
    14    73    74    1
    15    62    61    1
    16    62    63    1
    17    58    59    1
    18    58    61    1
    19    58    57    1
    20    59    65   am
    21    76    75    2
    22   168   162   am
    23    68    67    2
    24   179   180    1
    25    75    74    1
    26   152   153    1
    27    74    77    1
    28    67    66    1
    29   155   154    2
    30   163   162    2
    31   150   149    2
    32    65    66    1
    33   162   161    1
    34    66    69    1
    35   154   153    1
    36   154   160   am
    37   180   181    1
    38   180   183    1
    39    79    77    1
    40   181   182    2
    41   153   156    1
    42   147   148    1
    43    77    78    1
    44   149   148    1
    45   121   120    1
    46   160   161    1
    47   104   102   ar
    48   104   105   ar
    49   161   164    1
    50   102   101   ar
    51   148   151    1
    52   183   184    1
    53    69    70    1
    54    72    70    1
    55   184   186    1
    56   184   185    1
    57   156   157    1
    58   159   157    1
    59    78    80    1
    60    51    50    2
    61   105   103   ar
    62   164   165    1
    63   157   158    1
    64    70    71    1
    65   120   119    1
    66   101   103   ar
    67   101   100    1
    68    50    49    1
    69    48    49    1
    70    49    52    1
    71   119   118    1
    72   133   134    2
    73   133   132    1
    74   100    97    1
    75   165   167   ar
    76   165   166   ar
    77    94    93    1
    78   129   128    2
    79   118   115    1
    80   132   135    1
    81   132   131    1
    82    53    52    1
    83    53    54    1
    84    96    97    1
    85    96    91   am
    86   135   136    1
    87    97    98    1
    88   128   131   am
    89   128   127    1
    90   115   114    1
    91   115   116    1
    92   141   142    2
    93   141   140    1
    94   138   136   ar
    95   139   140    1
    96    93    90    1
    97    93    95    1
    98   109   108    2
    99   136   137   ar
   100    98    99    2
   101    98   106   am
   102    90    91    1
   103    90    89    1
   104    54    56   ar
   105    54    55   ar
   106    91    92    2
   107   122   116   am
   108   122   123    1
   109   114   108   am
   110   126   127    1
   111   126   124   am
   112   108   107    1
   113   106   107    1
   114   127   130    1
   115   140   143    1
   116   116   117    2
   117   123   124    1
   118   107   110    1
   119   143   144    1
   120   124   125    2
   121    87    86    1
   122   144   145    2
   123   144   146   am
   124    88    86    1
   125    47    46    1
   126    85    86    1
   127    85    82    1
   128   110   111    1
   129    46    45    1
   130    82    83    1
   131    82    81    1
   132    31    28    1
   133    83    84    2
   134   111   112    1
   135   111   113    1
   136    30    29    2
   137    27    28    1
   138    15    17   ar
   139    15    13   ar
   140    17    18   ar
   141    28    29    1
   142    45    44    1
   143    13    12    1
   144    13    14   ar
   145    18    19    1
   146    18    16   ar
   147    12     9    1
   148    29    32   am
   149    14    16   ar
   150    43    44    1
   151    43    40    1
   152    32    33    1
   153    39    40    1
   154    39    34   am
   155     9     8    1
   156     9    10    1
   157    26    24    1
   158    33    34    1
   159    33    36    1
   160    40    41    1
   161    25    24    1
   162    42    41    2
   163    34    35    2
   164    11    10    2
   165    24    21    1
   166    38    36    1
   167    36    37    1
   168     7     5    1
   169    21    20    1
   170    21    22    1
   171     5     6    1
   172     5     2    1
   173     4     3    2
   174    22    23    2
   175     3     2    1
   176     2     1    1
